*SPEF "IEEE 1481-1998"
*DESIGN "myfir"
*DATE "Thu Oct 21 13:39:51 2021"
*VENDOR "Cadence Design Systems, Inc."
*PROGRAM "Innovus"
*VERSION "17.11-s080_1"
*DESIGN_FLOW "COUPLING C" "PIN_CAP NONE" "NAME_SCOPE LOCAL"
*DIVIDER /
*DELIMITER :
*BUS_DELIMITER []
*T_UNIT 1 NS
*C_UNIT 1 PF
*R_UNIT 1 OHM
*L_UNIT 1 HENRY

// MMMC spef file for corner 'my_rc'

*NAME_MAP

*1 MYFIR_IN_RST_n
*2 MYFIR_IN_CLK
*3 MYFIR_IN_b0[8]
*4 MYFIR_IN_b0[7]
*5 MYFIR_IN_b0[6]
*6 MYFIR_IN_b0[5]
*7 MYFIR_IN_b0[4]
*8 MYFIR_IN_b0[3]
*9 MYFIR_IN_b0[2]
*10 MYFIR_IN_b0[1]
*11 MYFIR_IN_b0[0]
*12 MYFIR_IN_b1[8]
*13 MYFIR_IN_b1[7]
*14 MYFIR_IN_b1[6]
*15 MYFIR_IN_b1[5]
*16 MYFIR_IN_b1[4]
*17 MYFIR_IN_b1[3]
*18 MYFIR_IN_b1[2]
*19 MYFIR_IN_b1[1]
*20 MYFIR_IN_b1[0]
*21 MYFIR_IN_b2[8]
*22 MYFIR_IN_b2[7]
*23 MYFIR_IN_b2[6]
*24 MYFIR_IN_b2[5]
*25 MYFIR_IN_b2[4]
*26 MYFIR_IN_b2[3]
*27 MYFIR_IN_b2[2]
*28 MYFIR_IN_b2[1]
*29 MYFIR_IN_b2[0]
*30 MYFIR_IN_b3[8]
*31 MYFIR_IN_b3[7]
*32 MYFIR_IN_b3[6]
*33 MYFIR_IN_b3[5]
*34 MYFIR_IN_b3[4]
*35 MYFIR_IN_b3[3]
*36 MYFIR_IN_b3[2]
*37 MYFIR_IN_b3[1]
*38 MYFIR_IN_b3[0]
*39 MYFIR_IN_b4[8]
*40 MYFIR_IN_b4[7]
*41 MYFIR_IN_b4[6]
*42 MYFIR_IN_b4[5]
*43 MYFIR_IN_b4[4]
*44 MYFIR_IN_b4[3]
*45 MYFIR_IN_b4[2]
*46 MYFIR_IN_b4[1]
*47 MYFIR_IN_b4[0]
*48 MYFIR_IN_b5[8]
*49 MYFIR_IN_b5[7]
*50 MYFIR_IN_b5[6]
*51 MYFIR_IN_b5[5]
*52 MYFIR_IN_b5[4]
*53 MYFIR_IN_b5[3]
*54 MYFIR_IN_b5[2]
*55 MYFIR_IN_b5[1]
*56 MYFIR_IN_b5[0]
*57 MYFIR_IN_b6[8]
*58 MYFIR_IN_b6[7]
*59 MYFIR_IN_b6[6]
*60 MYFIR_IN_b6[5]
*61 MYFIR_IN_b6[4]
*62 MYFIR_IN_b6[3]
*63 MYFIR_IN_b6[2]
*64 MYFIR_IN_b6[1]
*65 MYFIR_IN_b6[0]
*66 MYFIR_IN_b7[8]
*67 MYFIR_IN_b7[7]
*68 MYFIR_IN_b7[6]
*69 MYFIR_IN_b7[5]
*70 MYFIR_IN_b7[4]
*71 MYFIR_IN_b7[3]
*72 MYFIR_IN_b7[2]
*73 MYFIR_IN_b7[1]
*74 MYFIR_IN_b7[0]
*75 MYFIR_IN_b8[8]
*76 MYFIR_IN_b8[7]
*77 MYFIR_IN_b8[6]
*78 MYFIR_IN_b8[5]
*79 MYFIR_IN_b8[4]
*80 MYFIR_IN_b8[3]
*81 MYFIR_IN_b8[2]
*82 MYFIR_IN_b8[1]
*83 MYFIR_IN_b8[0]
*84 MYFIR_IN_b9[8]
*85 MYFIR_IN_b9[7]
*86 MYFIR_IN_b9[6]
*87 MYFIR_IN_b9[5]
*88 MYFIR_IN_b9[4]
*89 MYFIR_IN_b9[3]
*90 MYFIR_IN_b9[2]
*91 MYFIR_IN_b9[1]
*92 MYFIR_IN_b9[0]
*93 MYFIR_IN_b10[8]
*94 MYFIR_IN_b10[7]
*95 MYFIR_IN_b10[6]
*96 MYFIR_IN_b10[5]
*97 MYFIR_IN_b10[4]
*98 MYFIR_IN_b10[3]
*99 MYFIR_IN_b10[2]
*100 MYFIR_IN_b10[1]
*101 MYFIR_IN_b10[0]
*102 MYFIR_IN_VIN
*103 MYFIR_IN_DIN[8]
*104 MYFIR_IN_DIN[7]
*105 MYFIR_IN_DIN[6]
*106 MYFIR_IN_DIN[5]
*107 MYFIR_IN_DIN[4]
*108 MYFIR_IN_DIN[3]
*109 MYFIR_IN_DIN[2]
*110 MYFIR_IN_DIN[1]
*111 MYFIR_IN_DIN[0]
*112 MYFIR_OUT_VOUT
*113 MYFIR_OUT_DOUT[8]
*114 MYFIR_OUT_DOUT[7]
*115 MYFIR_OUT_DOUT[6]
*116 MYFIR_OUT_DOUT[5]
*117 MYFIR_OUT_DOUT[4]
*118 MYFIR_OUT_DOUT[3]
*119 MYFIR_OUT_DOUT[2]
*120 MYFIR_OUT_DOUT[1]
*121 MYFIR_OUT_DOUT[0]
*122 FE_OFN27_FE_DBTN0_n111
*123 FE_OFN26_n111
*124 FE_OFN25_MYFIR_IN_RST_n
*125 FE_OFN24_MYFIR_IN_RST_n
*126 FE_OFN23_MYFIR_IN_RST_n
*127 FE_OFN22_MYFIR_IN_RST_n
*128 FE_OFN21_i_MULT_id_8_mult_21_n314
*129 FE_OFN20_i_MULT_id_10_mult_21_n317
*130 FE_OFN19_i_MULT_id_6_mult_21_n317
*131 FE_OFN18_i_MULT_id_4_mult_21_n317
*132 FE_OFN17_i_MULT_id_3_mult_21_n317
*133 FE_OFN16_i_MULT_id_6_mult_21_n314
*134 FE_OFN15_i_MULT_id_10_mult_21_n314
*135 FE_OFN14_i_MULT_id_2_mult_21_n317
*136 FE_OFN13_i_MULT_id_0_mult_21_n317
*137 FE_OFN12_i_MULT_id_5_mult_21_n317
*138 FE_OFN11_i_MULT_id_3_mult_21_n314
*139 FE_OFN10_i_MULT_id_7_mult_21_n317
*140 FE_OFN9_i_MULT_id_1_mult_21_n314
*141 FE_OFN8_i_MULT_id_4_mult_21_n314
*142 FE_OFN7_i_MULT_id_9_mult_21_n317
*143 FE_OFN6_i_MULT_id_0_mult_21_n314
*144 FE_OFN5_i_MULT_id_5_mult_21_n314
*145 FE_OFN4_i_MULT_id_2_mult_21_n314
*146 FE_OFN3_i_MULT_id_9_mult_21_n314
*147 FE_OFN2_i_MULT_id_8_mult_21_n317
*148 FE_OFN1_i_MULT_id_1_mult_21_n317
*149 FE_OFN0_i_MULT_id_7_mult_21_n314
*150 FE_DBTN0_n111
*151 d_din_0__8_
*152 d_din_0__7_
*153 d_din_0__6_
*154 d_din_0__5_
*155 d_din_0__4_
*156 d_din_0__3_
*157 d_din_0__2_
*158 d_din_0__1_
*159 d_din_0__0_
*160 d_din_1__8_
*161 d_din_1__7_
*162 d_din_1__6_
*163 d_din_1__5_
*164 d_din_1__4_
*165 d_din_1__3_
*166 d_din_1__2_
*167 d_din_1__1_
*168 d_din_1__0_
*169 d_din_2__8_
*170 d_din_2__7_
*171 d_din_2__6_
*172 d_din_2__5_
*173 d_din_2__4_
*174 d_din_2__3_
*175 d_din_2__2_
*176 d_din_2__1_
*177 d_din_2__0_
*178 d_din_3__8_
*179 d_din_3__7_
*180 d_din_3__6_
*181 d_din_3__5_
*182 d_din_3__4_
*183 d_din_3__3_
*184 d_din_3__2_
*185 d_din_3__1_
*186 d_din_3__0_
*187 d_din_4__8_
*188 d_din_4__7_
*189 d_din_4__6_
*190 d_din_4__5_
*191 d_din_4__4_
*192 d_din_4__3_
*193 d_din_4__2_
*194 d_din_4__1_
*195 d_din_4__0_
*196 d_din_5__8_
*197 d_din_5__7_
*198 d_din_5__6_
*199 d_din_5__5_
*200 d_din_5__4_
*201 d_din_5__3_
*202 d_din_5__2_
*203 d_din_5__1_
*204 d_din_5__0_
*205 d_din_6__8_
*206 d_din_6__7_
*207 d_din_6__6_
*208 d_din_6__5_
*209 d_din_6__4_
*210 d_din_6__3_
*211 d_din_6__2_
*212 d_din_6__1_
*213 d_din_6__0_
*214 d_din_7__8_
*215 d_din_7__7_
*216 d_din_7__6_
*217 d_din_7__5_
*218 d_din_7__4_
*219 d_din_7__3_
*220 d_din_7__2_
*221 d_din_7__1_
*222 d_din_7__0_
*223 d_din_8__8_
*224 d_din_8__7_
*225 d_din_8__6_
*226 d_din_8__5_
*227 d_din_8__4_
*228 d_din_8__3_
*229 d_din_8__2_
*230 d_din_8__1_
*231 d_din_8__0_
*232 d_din_9__8_
*233 d_din_9__7_
*234 d_din_9__6_
*235 d_din_9__5_
*236 d_din_9__4_
*237 d_din_9__3_
*238 d_din_9__2_
*239 d_din_9__1_
*240 d_din_9__0_
*241 d_din_10__8_
*242 d_din_10__7_
*243 d_din_10__6_
*244 d_din_10__5_
*245 d_din_10__4_
*246 d_din_10__3_
*247 d_din_10__2_
*248 d_din_10__1_
*249 d_din_10__0_
*250 coeffs_0__8_
*251 coeffs_0__7_
*252 coeffs_0__6_
*253 coeffs_0__5_
*254 coeffs_0__4_
*255 coeffs_0__3_
*256 coeffs_0__2_
*257 coeffs_0__1_
*258 coeffs_0__0_
*259 coeffs_1__8_
*260 coeffs_1__7_
*261 coeffs_1__6_
*262 coeffs_1__5_
*263 coeffs_1__4_
*264 coeffs_1__3_
*265 coeffs_1__2_
*266 coeffs_1__1_
*267 coeffs_1__0_
*268 coeffs_2__8_
*269 coeffs_2__7_
*270 coeffs_2__6_
*271 coeffs_2__5_
*272 coeffs_2__4_
*273 coeffs_2__3_
*274 coeffs_2__2_
*275 coeffs_2__1_
*276 coeffs_2__0_
*277 coeffs_3__8_
*278 coeffs_3__7_
*279 coeffs_3__6_
*280 coeffs_3__5_
*281 coeffs_3__4_
*282 coeffs_3__3_
*283 coeffs_3__2_
*284 coeffs_3__1_
*285 coeffs_3__0_
*286 coeffs_4__8_
*287 coeffs_4__7_
*288 coeffs_4__6_
*289 coeffs_4__5_
*290 coeffs_4__4_
*291 coeffs_4__3_
*292 coeffs_4__2_
*293 coeffs_4__1_
*294 coeffs_4__0_
*295 coeffs_5__8_
*296 coeffs_5__7_
*297 coeffs_5__6_
*298 coeffs_5__5_
*299 coeffs_5__4_
*300 coeffs_5__3_
*301 coeffs_5__2_
*302 coeffs_5__1_
*303 coeffs_5__0_
*304 coeffs_6__8_
*305 coeffs_6__7_
*306 coeffs_6__6_
*307 coeffs_6__5_
*308 coeffs_6__4_
*309 coeffs_6__3_
*310 coeffs_6__2_
*311 coeffs_6__1_
*312 coeffs_6__0_
*313 coeffs_7__8_
*314 coeffs_7__7_
*315 coeffs_7__6_
*316 coeffs_7__5_
*317 coeffs_7__4_
*318 coeffs_7__3_
*319 coeffs_7__2_
*320 coeffs_7__1_
*321 coeffs_7__0_
*322 coeffs_8__8_
*323 coeffs_8__7_
*324 coeffs_8__6_
*325 coeffs_8__5_
*326 coeffs_8__4_
*327 coeffs_8__3_
*328 coeffs_8__2_
*329 coeffs_8__1_
*330 coeffs_8__0_
*331 coeffs_9__8_
*332 coeffs_9__7_
*333 coeffs_9__6_
*334 coeffs_9__5_
*335 coeffs_9__4_
*336 coeffs_9__3_
*337 coeffs_9__2_
*338 coeffs_9__1_
*339 coeffs_9__0_
*340 coeffs_10__8_
*341 coeffs_10__7_
*342 coeffs_10__6_
*343 coeffs_10__5_
*344 coeffs_10__4_
*345 coeffs_10__3_
*346 coeffs_10__2_
*347 coeffs_10__1_
*348 coeffs_10__0_
*349 adder_in_0__7_
*350 adder_in_0__6_
*351 adder_in_0__5_
*352 adder_in_0__4_
*353 adder_in_0__3_
*354 adder_in_0__2_
*355 adder_in_0__1_
*356 adder_in_0__0_
*357 adder_in_1__7_
*358 adder_in_1__6_
*359 adder_in_1__5_
*360 adder_in_1__4_
*361 adder_in_1__3_
*362 adder_in_1__2_
*363 adder_in_1__1_
*364 adder_in_1__0_
*365 adder_in_2__7_
*366 adder_in_2__6_
*367 adder_in_2__5_
*368 adder_in_2__4_
*369 adder_in_2__3_
*370 adder_in_2__2_
*371 adder_in_2__1_
*372 adder_in_2__0_
*373 adder_in_3__7_
*374 adder_in_3__6_
*375 adder_in_3__5_
*376 adder_in_3__4_
*377 adder_in_3__3_
*378 adder_in_3__2_
*379 adder_in_3__1_
*380 adder_in_3__0_
*381 adder_in_4__7_
*382 adder_in_4__6_
*383 adder_in_4__5_
*384 adder_in_4__4_
*385 adder_in_4__3_
*386 adder_in_4__2_
*387 adder_in_4__1_
*388 adder_in_4__0_
*389 adder_in_5__7_
*390 adder_in_5__6_
*391 adder_in_5__5_
*392 adder_in_5__4_
*393 adder_in_5__3_
*394 adder_in_5__2_
*395 adder_in_5__1_
*396 adder_in_5__0_
*397 adder_in_6__7_
*398 adder_in_6__6_
*399 adder_in_6__5_
*400 adder_in_6__4_
*401 adder_in_6__3_
*402 adder_in_6__2_
*403 adder_in_6__1_
*404 adder_in_6__0_
*405 adder_in_7__7_
*406 adder_in_7__6_
*407 adder_in_7__5_
*408 adder_in_7__4_
*409 adder_in_7__3_
*410 adder_in_7__2_
*411 adder_in_7__1_
*412 adder_in_7__0_
*413 adder_in_8__7_
*414 adder_in_8__6_
*415 adder_in_8__5_
*416 adder_in_8__4_
*417 adder_in_8__3_
*418 adder_in_8__2_
*419 adder_in_8__1_
*420 adder_in_8__0_
*421 adder_in_9__7_
*422 adder_in_9__6_
*423 adder_in_9__5_
*424 adder_in_9__4_
*425 adder_in_9__3_
*426 adder_in_9__2_
*427 adder_in_9__1_
*428 adder_in_9__0_
*429 adder_in_10__7_
*430 adder_in_10__6_
*431 adder_in_10__5_
*432 adder_in_10__4_
*433 adder_in_10__3_
*434 adder_in_10__2_
*435 adder_in_10__1_
*436 adder_in_10__0_
*437 adder_out_0__7_
*438 adder_out_0__6_
*439 adder_out_0__5_
*440 adder_out_0__4_
*441 adder_out_0__3_
*442 adder_out_0__2_
*443 adder_out_0__1_
*444 adder_out_0__0_
*445 adder_out_1__7_
*446 adder_out_1__6_
*447 adder_out_1__5_
*448 adder_out_1__4_
*449 adder_out_1__3_
*450 adder_out_1__2_
*451 adder_out_1__1_
*452 adder_out_1__0_
*453 adder_out_2__7_
*454 adder_out_2__6_
*455 adder_out_2__5_
*456 adder_out_2__4_
*457 adder_out_2__3_
*458 adder_out_2__2_
*459 adder_out_2__1_
*460 adder_out_2__0_
*461 adder_out_3__7_
*462 adder_out_3__6_
*463 adder_out_3__5_
*464 adder_out_3__4_
*465 adder_out_3__3_
*466 adder_out_3__2_
*467 adder_out_3__1_
*468 adder_out_3__0_
*469 adder_out_4__7_
*470 adder_out_4__6_
*471 adder_out_4__5_
*472 adder_out_4__4_
*473 adder_out_4__3_
*474 adder_out_4__2_
*475 adder_out_4__1_
*476 adder_out_4__0_
*477 adder_out_5__7_
*478 adder_out_5__6_
*479 adder_out_5__5_
*480 adder_out_5__4_
*481 adder_out_5__3_
*482 adder_out_5__2_
*483 adder_out_5__1_
*484 adder_out_5__0_
*485 adder_out_6__7_
*486 adder_out_6__6_
*487 adder_out_6__5_
*488 adder_out_6__4_
*489 adder_out_6__3_
*490 adder_out_6__2_
*491 adder_out_6__1_
*492 adder_out_6__0_
*493 adder_out_7__7_
*494 adder_out_7__6_
*495 adder_out_7__5_
*496 adder_out_7__4_
*497 adder_out_7__3_
*498 adder_out_7__2_
*499 adder_out_7__1_
*500 adder_out_7__0_
*501 adder_out_8__7_
*502 adder_out_8__6_
*503 adder_out_8__5_
*504 adder_out_8__4_
*505 adder_out_8__3_
*506 adder_out_8__2_
*507 adder_out_8__1_
*508 adder_out_8__0_
*509 adder_out_9__6_
*510 adder_out_9__5_
*511 adder_out_9__4_
*512 adder_out_9__3_
*513 adder_out_9__2_
*514 adder_out_9__1_
*515 adder_out_9__0_
*516 n1
*517 n2
*518 n3
*519 n4
*520 n5
*521 n6
*522 n7
*523 n8
*524 n9
*525 n10
*526 n11
*527 n12
*528 n13
*529 n14
*530 n15
*531 n16
*532 n17
*533 n18
*534 n19
*535 n20
*536 n21
*537 n22
*538 n23
*539 n24
*540 n25
*541 n26
*542 n27
*543 n28
*544 n29
*545 n30
*546 n31
*547 n32
*548 n33
*549 n34
*550 n35
*551 n36
*552 n37
*553 n38
*554 n39
*555 n40
*556 n41
*557 n42
*558 n43
*559 n44
*560 n45
*561 n46
*562 n47
*563 n48
*564 n49
*565 n50
*566 n51
*567 n52
*568 n53
*569 n54
*570 n55
*571 n56
*572 n57
*573 n58
*574 n59
*575 n60
*576 n61
*577 n62
*578 n63
*579 n64
*580 n65
*581 n66
*582 n67
*583 n68
*584 n69
*585 n70
*586 n71
*587 n72
*588 n73
*589 n74
*590 n75
*591 n76
*592 n77
*593 n78
*594 n79
*595 n80
*596 n81
*597 n82
*598 n83
*599 n84
*600 n85
*601 n86
*602 n87
*603 n88
*604 n89
*605 n90
*606 n91
*607 n92
*608 n93
*609 n94
*610 n95
*611 n96
*612 n97
*613 n98
*614 n99
*615 n100
*616 n101
*617 n102
*618 n103
*619 n104
*620 n105
*621 n106
*622 n107
*623 n108
*624 n109
*625 n111
*626 n114
*627 n115
*628 n116
*629 n117
*630 n118
*631 n119
*632 n120
*633 n121
*634 n122
*635 n123
*636 n124
*637 n125
*638 n126
*639 n127
*640 n128
*641 n129
*642 n130
*643 n131
*644 n132
*645 n133
*646 n134
*647 n135
*648 n136
*649 n137
*650 n138
*651 n139
*652 n140
*653 n141
*654 n142
*655 n143
*656 n144
*657 n145
*658 n146
*659 n147
*660 n148
*661 n149
*662 n150
*663 n151
*664 n152
*665 n153
*666 n154
*667 n155
*668 n156
*669 n157
*670 n158
*671 n159
*672 n160
*673 n161
*674 n162
*675 n163
*676 n164
*677 n165
*678 n166
*679 n167
*680 n168
*681 n169
*682 n170
*683 n171
*684 n172
*685 n173
*686 n174
*687 n175
*688 n176
*689 n177
*690 n178
*691 n179
*692 n180
*693 n181
*694 n182
*695 n183
*696 n184
*697 n185
*698 n186
*699 n187
*700 n188
*701 n189
*702 n190
*703 n191
*704 n192
*705 n193
*706 n194
*707 n195
*708 n196
*709 n197
*710 n198
*711 n199
*712 n200
*713 n201
*714 n202
*715 n203
*716 n204
*717 n205
*718 n206
*719 n207
*720 n208
*721 n209
*722 n210
*723 n211
*724 n212
*725 n213
*726 n214
*727 n215
*728 n216
*729 n217
*730 n218
*731 n219
*732 n220
*733 n221
*734 n222
*735 n223
*736 n224
*737 n225
*738 n226
*739 n227
*740 n228
*741 n229
*742 n230
*743 n231
*744 n232
*745 n233
*746 n234
*747 n235
*748 n236
*749 n237
*750 n238
*751 n239
*752 n240
*753 n241
*754 n242
*755 n243
*756 n244
*757 n245
*758 n246
*759 n247
*760 n248
*761 n249
*762 n250
*763 n251
*764 n252
*765 n253
*766 n254
*767 n255
*768 n256
*769 n257
*770 n258
*771 n259
*772 n260
*773 n261
*774 n262
*775 n263
*776 n264
*777 n265
*778 n266
*779 n267
*780 n268
*781 n269
*782 n270
*783 n271
*784 n272
*785 n273
*786 n274
*787 n275
*788 n276
*789 n277
*790 n278
*791 n279
*792 n280
*793 n281
*794 n282
*795 n283
*796 n284
*797 n285
*798 n286
*799 n287
*800 n288
*801 n289
*802 n290
*803 n291
*804 n292
*805 n293
*806 n294
*807 n295
*808 n296
*809 n297
*810 n298
*811 n299
*812 n300
*813 n301
*814 n302
*815 n303
*816 n304
*817 n305
*818 n306
*819 n307
*820 n308
*821 n309
*822 n310
*823 n311
*824 n312
*825 n313
*826 n314
*827 n315
*828 n316
*829 n317
*830 n318
*831 n319
*832 n320
*833 n321
*834 n322
*835 n323
*836 n324
*837 n325
*838 n326
*839 n327
*840 n328
*841 n329
*842 n330
*843 n331
*844 n332
*845 n333
*846 n334
*847 n335
*848 n336
*849 n337
*850 n338
*851 n339
*852 n340
*853 n341
*854 n342
*855 n343
*856 n344
*857 n345
*858 n346
*859 n347
*860 n348
*861 n349
*862 n350
*863 n351
*864 n352
*865 n353
*866 n354
*867 n355
*868 n356
*869 n357
*870 n358
*871 n359
*872 n360
*873 n361
*874 n362
*875 n363
*876 n364
*877 n365
*878 n366
*879 n367
*880 n368
*881 n369
*882 n370
*883 n371
*884 n372
*885 n373
*886 n374
*887 n375
*888 n376
*889 n377
*890 n378
*891 n379
*892 n380
*893 n381
*894 n382
*895 n383
*896 n384
*897 n385
*898 n386
*899 n387
*900 n388
*901 n389
*902 n390
*903 n391
*904 n392
*905 n393
*906 n394
*907 n395
*908 n396
*909 n397
*910 n398
*911 n399
*912 n400
*913 n401
*914 n402
*915 n403
*916 n404
*917 n405
*918 n406
*919 n407
*920 n408
*921 n409
*922 n410
*923 n411
*924 n412
*925 n413
*926 n414
*927 n415
*928 n416
*929 n417
*930 n418
*931 n419
*932 n420
*933 n421
*934 n422
*935 n423
*936 n424
*937 n425
*938 n426
*939 n427
*940 n428
*941 n429
*942 n430
*943 n431
*944 n432
*945 n433
*946 n434
*947 n435
*948 n436
*949 n437
*950 n438
*951 n439
*952 n440
*953 n441
*954 n442
*955 n443
*956 n444
*957 n445
*958 n446
*959 n447
*960 n448
*961 n449
*962 n450
*963 n451
*964 n452
*965 n453
*966 n454
*967 n455
*968 n456
*969 n457
*970 n458
*971 n459
*972 n460
*973 n461
*974 n462
*975 n463
*976 n464
*977 n465
*978 n466
*979 n467
*980 n468
*981 n469
*982 n470
*983 n471
*984 n472
*985 n473
*986 n474
*987 n475
*988 n476
*989 n477
*990 n478
*991 n479
*992 n480
*993 n481
*994 n482
*995 n483
*996 n484
*997 n485
*998 n486
*999 n487
*1000 n488
*1001 n489
*1002 n490
*1003 n491
*1004 n492
*1005 n493
*1006 n494
*1007 n495
*1008 n496
*1009 n497
*1010 n498
*1011 n499
*1012 n500
*1013 n501
*1014 n502
*1015 n503
*1016 n504
*1017 n505
*1018 n506
*1019 n507
*1020 n508
*1021 n509
*1022 n510
*1023 n511
*1024 n512
*1025 n513
*1026 n514
*1027 n515
*1028 n516
*1029 n517
*1030 n518
*1031 n519
*1032 n520
*1033 n521
*1034 n522
*1035 n523
*1036 n524
*1037 n525
*1038 n526
*1039 n527
*1040 n528
*1041 n529
*1042 n530
*1043 n531
*1044 n532
*1045 n533
*1046 n534
*1047 n535
*1048 n536
*1049 n537
*1050 n538
*1051 n539
*1052 n540
*1053 n541
*1054 n542
*1055 n543
*1056 n544
*1057 n545
*1058 n546
*1059 n547
*1060 n548
*1061 n549
*1062 n550
*1063 n551
*1064 n552
*1065 n553
*1066 n554
*1067 n555
*1068 n556
*1069 n557
*1070 n558
*1071 n559
*1072 n560
*1073 n561
*1074 n629
*1075 n630
*1076 i_MULT_id_0_multiplier_out_0_
*1077 i_MULT_id_0_mult_21_n380
*1078 i_MULT_id_0_mult_21_n379
*1079 i_MULT_id_0_mult_21_n378
*1080 i_MULT_id_0_mult_21_n377
*1081 i_MULT_id_0_mult_21_n376
*1082 i_MULT_id_0_mult_21_n375
*1083 i_MULT_id_0_mult_21_n374
*1084 i_MULT_id_0_mult_21_n373
*1085 i_MULT_id_0_mult_21_n372
*1086 i_MULT_id_0_mult_21_n371
*1087 i_MULT_id_0_mult_21_n370
*1088 i_MULT_id_0_mult_21_n369
*1089 i_MULT_id_0_mult_21_n368
*1090 i_MULT_id_0_mult_21_n367
*1091 i_MULT_id_0_mult_21_n366
*1092 i_MULT_id_0_mult_21_n365
*1093 i_MULT_id_0_mult_21_n364
*1094 i_MULT_id_0_mult_21_n363
*1095 i_MULT_id_0_mult_21_n362
*1096 i_MULT_id_0_mult_21_n361
*1097 i_MULT_id_0_mult_21_n360
*1098 i_MULT_id_0_mult_21_n359
*1099 i_MULT_id_0_mult_21_n358
*1100 i_MULT_id_0_mult_21_n357
*1101 i_MULT_id_0_mult_21_n356
*1102 i_MULT_id_0_mult_21_n355
*1103 i_MULT_id_0_mult_21_n354
*1104 i_MULT_id_0_mult_21_n353
*1105 i_MULT_id_0_mult_21_n352
*1106 i_MULT_id_0_mult_21_n351
*1107 i_MULT_id_0_mult_21_n350
*1108 i_MULT_id_0_mult_21_n349
*1109 i_MULT_id_0_mult_21_n348
*1110 i_MULT_id_0_mult_21_n347
*1111 i_MULT_id_0_mult_21_n346
*1112 i_MULT_id_0_mult_21_n345
*1113 i_MULT_id_0_mult_21_n344
*1114 i_MULT_id_0_mult_21_n343
*1115 i_MULT_id_0_mult_21_n342
*1116 i_MULT_id_0_mult_21_n341
*1117 i_MULT_id_0_mult_21_n340
*1118 i_MULT_id_0_mult_21_n339
*1119 i_MULT_id_0_mult_21_n338
*1120 i_MULT_id_0_mult_21_n337
*1121 i_MULT_id_0_mult_21_n336
*1122 i_MULT_id_0_mult_21_n335
*1123 i_MULT_id_0_mult_21_n334
*1124 i_MULT_id_0_mult_21_n333
*1125 i_MULT_id_0_mult_21_n332
*1126 i_MULT_id_0_mult_21_n331
*1127 i_MULT_id_0_mult_21_n330
*1128 i_MULT_id_0_mult_21_n329
*1129 i_MULT_id_0_mult_21_n328
*1130 i_MULT_id_0_mult_21_n327
*1131 i_MULT_id_0_mult_21_n326
*1132 i_MULT_id_0_mult_21_n325
*1133 i_MULT_id_0_mult_21_n324
*1134 i_MULT_id_0_mult_21_n323
*1135 i_MULT_id_0_mult_21_n322
*1136 i_MULT_id_0_mult_21_n321
*1137 i_MULT_id_0_mult_21_n320
*1138 i_MULT_id_0_mult_21_n319
*1139 i_MULT_id_0_mult_21_n318
*1140 i_MULT_id_0_mult_21_n317
*1141 i_MULT_id_0_mult_21_n316
*1142 i_MULT_id_0_mult_21_n315
*1143 i_MULT_id_0_mult_21_n314
*1144 i_MULT_id_0_mult_21_n313
*1145 i_MULT_id_0_mult_21_n312
*1146 i_MULT_id_0_mult_21_n311
*1147 i_MULT_id_0_mult_21_n310
*1148 i_MULT_id_0_mult_21_n309
*1149 i_MULT_id_0_mult_21_n308
*1150 i_MULT_id_0_mult_21_n307
*1151 i_MULT_id_0_mult_21_n306
*1152 i_MULT_id_0_mult_21_n305
*1153 i_MULT_id_0_mult_21_n304
*1154 i_MULT_id_0_mult_21_n303
*1155 i_MULT_id_0_mult_21_n302
*1156 i_MULT_id_0_mult_21_n301
*1157 i_MULT_id_0_mult_21_n300
*1158 i_MULT_id_0_mult_21_n299
*1159 i_MULT_id_0_mult_21_n298
*1160 i_MULT_id_0_mult_21_n297
*1161 i_MULT_id_0_mult_21_n296
*1162 i_MULT_id_0_mult_21_n295
*1163 i_MULT_id_0_mult_21_n294
*1164 i_MULT_id_0_mult_21_n293
*1165 i_MULT_id_0_mult_21_n292
*1166 i_MULT_id_0_mult_21_n291
*1167 i_MULT_id_0_mult_21_n290
*1168 i_MULT_id_0_mult_21_n289
*1169 i_MULT_id_0_mult_21_n288
*1170 i_MULT_id_0_mult_21_n287
*1171 i_MULT_id_0_mult_21_n286
*1172 i_MULT_id_0_mult_21_n285
*1173 i_MULT_id_0_mult_21_n284
*1174 i_MULT_id_0_mult_21_n283
*1175 i_MULT_id_0_mult_21_n282
*1176 i_MULT_id_0_mult_21_n281
*1177 i_MULT_id_0_mult_21_n144
*1178 i_MULT_id_0_mult_21_n143
*1179 i_MULT_id_0_mult_21_n142
*1180 i_MULT_id_0_mult_21_n141
*1181 i_MULT_id_0_mult_21_n140
*1182 i_MULT_id_0_mult_21_n139
*1183 i_MULT_id_0_mult_21_n136
*1184 i_MULT_id_0_mult_21_n135
*1185 i_MULT_id_0_mult_21_n134
*1186 i_MULT_id_0_mult_21_n133
*1187 i_MULT_id_0_mult_21_n132
*1188 i_MULT_id_0_mult_21_n131
*1189 i_MULT_id_0_mult_21_n130
*1190 i_MULT_id_0_mult_21_n128
*1191 i_MULT_id_0_mult_21_n127
*1192 i_MULT_id_0_mult_21_n126
*1193 i_MULT_id_0_mult_21_n125
*1194 i_MULT_id_0_mult_21_n124
*1195 i_MULT_id_0_mult_21_n123
*1196 i_MULT_id_0_mult_21_n122
*1197 i_MULT_id_0_mult_21_n121
*1198 i_MULT_id_0_mult_21_n119
*1199 i_MULT_id_0_mult_21_n118
*1200 i_MULT_id_0_mult_21_n117
*1201 i_MULT_id_0_mult_21_n115
*1202 i_MULT_id_0_mult_21_n114
*1203 i_MULT_id_0_mult_21_n113
*1204 i_MULT_id_0_mult_21_n112
*1205 i_MULT_id_0_mult_21_n110
*1206 i_MULT_id_0_mult_21_n108
*1207 i_MULT_id_0_mult_21_n107
*1208 i_MULT_id_0_mult_21_n106
*1209 i_MULT_id_0_mult_21_n105
*1210 i_MULT_id_0_mult_21_n104
*1211 i_MULT_id_0_mult_21_n103
*1212 i_MULT_id_0_mult_21_n99
*1213 i_MULT_id_0_mult_21_n98
*1214 i_MULT_id_0_mult_21_n97
*1215 i_MULT_id_0_mult_21_n81
*1216 i_MULT_id_0_mult_21_n80
*1217 i_MULT_id_0_mult_21_n79
*1218 i_MULT_id_0_mult_21_n78
*1219 i_MULT_id_0_mult_21_n77
*1220 i_MULT_id_0_mult_21_n76
*1221 i_MULT_id_0_mult_21_n75
*1222 i_MULT_id_0_mult_21_n74
*1223 i_MULT_id_0_mult_21_n73
*1224 i_MULT_id_0_mult_21_n72
*1225 i_MULT_id_0_mult_21_n71
*1226 i_MULT_id_0_mult_21_n70
*1227 i_MULT_id_0_mult_21_n69
*1228 i_MULT_id_0_mult_21_n68
*1229 i_MULT_id_0_mult_21_n67
*1230 i_MULT_id_0_mult_21_n66
*1231 i_MULT_id_0_mult_21_n65
*1232 i_MULT_id_0_mult_21_n64
*1233 i_MULT_id_0_mult_21_n63
*1234 i_MULT_id_0_mult_21_n62
*1235 i_MULT_id_0_mult_21_n61
*1236 i_MULT_id_0_mult_21_n60
*1237 i_MULT_id_0_mult_21_n59
*1238 i_MULT_id_0_mult_21_n58
*1239 i_MULT_id_0_mult_21_n57
*1240 i_MULT_id_0_mult_21_n56
*1241 i_MULT_id_0_mult_21_n55
*1242 i_MULT_id_0_mult_21_n54
*1243 i_MULT_id_0_mult_21_n53
*1244 i_MULT_id_0_mult_21_n52
*1245 i_MULT_id_0_mult_21_n51
*1246 i_MULT_id_0_mult_21_n50
*1247 i_MULT_id_0_mult_21_n48
*1248 i_MULT_id_0_mult_21_n47
*1249 i_MULT_id_0_mult_21_n46
*1250 i_MULT_id_0_mult_21_n45
*1251 i_MULT_id_0_mult_21_n44
*1252 i_MULT_id_0_mult_21_n43
*1253 i_MULT_id_0_mult_21_n42
*1254 i_MULT_id_0_mult_21_n41
*1255 i_MULT_id_0_mult_21_n40
*1256 i_MULT_id_0_mult_21_n39
*1257 i_MULT_id_0_mult_21_n38
*1258 i_MULT_id_0_mult_21_n37
*1259 i_MULT_id_0_mult_21_n36
*1260 i_MULT_id_0_mult_21_n34
*1261 i_MULT_id_0_mult_21_n33
*1262 i_MULT_id_0_mult_21_n32
*1263 i_MULT_id_0_mult_21_n31
*1264 i_MULT_id_0_mult_21_n30
*1265 i_MULT_id_0_mult_21_n29
*1266 i_MULT_id_0_mult_21_n28
*1267 i_MULT_id_0_mult_21_n27
*1268 i_MULT_id_0_mult_21_n26
*1269 i_MULT_id_0_mult_21_n24
*1270 i_MULT_id_0_mult_21_n23
*1271 i_MULT_id_0_mult_21_n22
*1272 i_MULT_id_0_mult_21_n21
*1273 i_MULT_id_0_mult_21_n20
*1274 i_MULT_id_0_mult_21_n19
*1275 i_MULT_id_0_mult_21_n8
*1276 i_MULT_id_0_mult_21_n7
*1277 i_MULT_id_0_mult_21_n6
*1278 i_MULT_id_0_mult_21_n5
*1279 i_MULT_id_0_mult_21_n4
*1280 i_MULT_id_0_mult_21_n3
*1281 i_MULT_id_0_mult_21_n2
*1282 i_MULT_id_1_multiplier_out_0_
*1283 i_MULT_id_1_mult_21_n380
*1284 i_MULT_id_1_mult_21_n379
*1285 i_MULT_id_1_mult_21_n378
*1286 i_MULT_id_1_mult_21_n377
*1287 i_MULT_id_1_mult_21_n376
*1288 i_MULT_id_1_mult_21_n375
*1289 i_MULT_id_1_mult_21_n374
*1290 i_MULT_id_1_mult_21_n373
*1291 i_MULT_id_1_mult_21_n372
*1292 i_MULT_id_1_mult_21_n371
*1293 i_MULT_id_1_mult_21_n370
*1294 i_MULT_id_1_mult_21_n369
*1295 i_MULT_id_1_mult_21_n368
*1296 i_MULT_id_1_mult_21_n367
*1297 i_MULT_id_1_mult_21_n366
*1298 i_MULT_id_1_mult_21_n365
*1299 i_MULT_id_1_mult_21_n364
*1300 i_MULT_id_1_mult_21_n363
*1301 i_MULT_id_1_mult_21_n362
*1302 i_MULT_id_1_mult_21_n361
*1303 i_MULT_id_1_mult_21_n360
*1304 i_MULT_id_1_mult_21_n359
*1305 i_MULT_id_1_mult_21_n358
*1306 i_MULT_id_1_mult_21_n357
*1307 i_MULT_id_1_mult_21_n356
*1308 i_MULT_id_1_mult_21_n355
*1309 i_MULT_id_1_mult_21_n354
*1310 i_MULT_id_1_mult_21_n353
*1311 i_MULT_id_1_mult_21_n352
*1312 i_MULT_id_1_mult_21_n351
*1313 i_MULT_id_1_mult_21_n350
*1314 i_MULT_id_1_mult_21_n349
*1315 i_MULT_id_1_mult_21_n348
*1316 i_MULT_id_1_mult_21_n347
*1317 i_MULT_id_1_mult_21_n346
*1318 i_MULT_id_1_mult_21_n345
*1319 i_MULT_id_1_mult_21_n344
*1320 i_MULT_id_1_mult_21_n343
*1321 i_MULT_id_1_mult_21_n342
*1322 i_MULT_id_1_mult_21_n341
*1323 i_MULT_id_1_mult_21_n340
*1324 i_MULT_id_1_mult_21_n339
*1325 i_MULT_id_1_mult_21_n338
*1326 i_MULT_id_1_mult_21_n337
*1327 i_MULT_id_1_mult_21_n336
*1328 i_MULT_id_1_mult_21_n335
*1329 i_MULT_id_1_mult_21_n334
*1330 i_MULT_id_1_mult_21_n333
*1331 i_MULT_id_1_mult_21_n332
*1332 i_MULT_id_1_mult_21_n331
*1333 i_MULT_id_1_mult_21_n330
*1334 i_MULT_id_1_mult_21_n329
*1335 i_MULT_id_1_mult_21_n328
*1336 i_MULT_id_1_mult_21_n327
*1337 i_MULT_id_1_mult_21_n326
*1338 i_MULT_id_1_mult_21_n325
*1339 i_MULT_id_1_mult_21_n324
*1340 i_MULT_id_1_mult_21_n323
*1341 i_MULT_id_1_mult_21_n322
*1342 i_MULT_id_1_mult_21_n321
*1343 i_MULT_id_1_mult_21_n320
*1344 i_MULT_id_1_mult_21_n319
*1345 i_MULT_id_1_mult_21_n318
*1346 i_MULT_id_1_mult_21_n317
*1347 i_MULT_id_1_mult_21_n316
*1348 i_MULT_id_1_mult_21_n315
*1349 i_MULT_id_1_mult_21_n314
*1350 i_MULT_id_1_mult_21_n313
*1351 i_MULT_id_1_mult_21_n312
*1352 i_MULT_id_1_mult_21_n311
*1353 i_MULT_id_1_mult_21_n310
*1354 i_MULT_id_1_mult_21_n309
*1355 i_MULT_id_1_mult_21_n308
*1356 i_MULT_id_1_mult_21_n307
*1357 i_MULT_id_1_mult_21_n306
*1358 i_MULT_id_1_mult_21_n305
*1359 i_MULT_id_1_mult_21_n304
*1360 i_MULT_id_1_mult_21_n303
*1361 i_MULT_id_1_mult_21_n302
*1362 i_MULT_id_1_mult_21_n301
*1363 i_MULT_id_1_mult_21_n300
*1364 i_MULT_id_1_mult_21_n299
*1365 i_MULT_id_1_mult_21_n298
*1366 i_MULT_id_1_mult_21_n297
*1367 i_MULT_id_1_mult_21_n296
*1368 i_MULT_id_1_mult_21_n295
*1369 i_MULT_id_1_mult_21_n294
*1370 i_MULT_id_1_mult_21_n293
*1371 i_MULT_id_1_mult_21_n292
*1372 i_MULT_id_1_mult_21_n291
*1373 i_MULT_id_1_mult_21_n290
*1374 i_MULT_id_1_mult_21_n289
*1375 i_MULT_id_1_mult_21_n288
*1376 i_MULT_id_1_mult_21_n287
*1377 i_MULT_id_1_mult_21_n286
*1378 i_MULT_id_1_mult_21_n285
*1379 i_MULT_id_1_mult_21_n284
*1380 i_MULT_id_1_mult_21_n283
*1381 i_MULT_id_1_mult_21_n282
*1382 i_MULT_id_1_mult_21_n281
*1383 i_MULT_id_1_mult_21_n144
*1384 i_MULT_id_1_mult_21_n143
*1385 i_MULT_id_1_mult_21_n142
*1386 i_MULT_id_1_mult_21_n141
*1387 i_MULT_id_1_mult_21_n140
*1388 i_MULT_id_1_mult_21_n139
*1389 i_MULT_id_1_mult_21_n136
*1390 i_MULT_id_1_mult_21_n135
*1391 i_MULT_id_1_mult_21_n134
*1392 i_MULT_id_1_mult_21_n133
*1393 i_MULT_id_1_mult_21_n132
*1394 i_MULT_id_1_mult_21_n131
*1395 i_MULT_id_1_mult_21_n130
*1396 i_MULT_id_1_mult_21_n128
*1397 i_MULT_id_1_mult_21_n127
*1398 i_MULT_id_1_mult_21_n126
*1399 i_MULT_id_1_mult_21_n125
*1400 i_MULT_id_1_mult_21_n124
*1401 i_MULT_id_1_mult_21_n123
*1402 i_MULT_id_1_mult_21_n122
*1403 i_MULT_id_1_mult_21_n121
*1404 i_MULT_id_1_mult_21_n119
*1405 i_MULT_id_1_mult_21_n118
*1406 i_MULT_id_1_mult_21_n117
*1407 i_MULT_id_1_mult_21_n115
*1408 i_MULT_id_1_mult_21_n114
*1409 i_MULT_id_1_mult_21_n113
*1410 i_MULT_id_1_mult_21_n112
*1411 i_MULT_id_1_mult_21_n110
*1412 i_MULT_id_1_mult_21_n108
*1413 i_MULT_id_1_mult_21_n107
*1414 i_MULT_id_1_mult_21_n106
*1415 i_MULT_id_1_mult_21_n105
*1416 i_MULT_id_1_mult_21_n104
*1417 i_MULT_id_1_mult_21_n103
*1418 i_MULT_id_1_mult_21_n99
*1419 i_MULT_id_1_mult_21_n98
*1420 i_MULT_id_1_mult_21_n97
*1421 i_MULT_id_1_mult_21_n81
*1422 i_MULT_id_1_mult_21_n80
*1423 i_MULT_id_1_mult_21_n79
*1424 i_MULT_id_1_mult_21_n78
*1425 i_MULT_id_1_mult_21_n77
*1426 i_MULT_id_1_mult_21_n76
*1427 i_MULT_id_1_mult_21_n75
*1428 i_MULT_id_1_mult_21_n74
*1429 i_MULT_id_1_mult_21_n73
*1430 i_MULT_id_1_mult_21_n72
*1431 i_MULT_id_1_mult_21_n71
*1432 i_MULT_id_1_mult_21_n70
*1433 i_MULT_id_1_mult_21_n69
*1434 i_MULT_id_1_mult_21_n68
*1435 i_MULT_id_1_mult_21_n67
*1436 i_MULT_id_1_mult_21_n66
*1437 i_MULT_id_1_mult_21_n65
*1438 i_MULT_id_1_mult_21_n64
*1439 i_MULT_id_1_mult_21_n63
*1440 i_MULT_id_1_mult_21_n62
*1441 i_MULT_id_1_mult_21_n61
*1442 i_MULT_id_1_mult_21_n60
*1443 i_MULT_id_1_mult_21_n59
*1444 i_MULT_id_1_mult_21_n58
*1445 i_MULT_id_1_mult_21_n57
*1446 i_MULT_id_1_mult_21_n56
*1447 i_MULT_id_1_mult_21_n55
*1448 i_MULT_id_1_mult_21_n54
*1449 i_MULT_id_1_mult_21_n53
*1450 i_MULT_id_1_mult_21_n52
*1451 i_MULT_id_1_mult_21_n51
*1452 i_MULT_id_1_mult_21_n50
*1453 i_MULT_id_1_mult_21_n48
*1454 i_MULT_id_1_mult_21_n47
*1455 i_MULT_id_1_mult_21_n46
*1456 i_MULT_id_1_mult_21_n45
*1457 i_MULT_id_1_mult_21_n44
*1458 i_MULT_id_1_mult_21_n43
*1459 i_MULT_id_1_mult_21_n42
*1460 i_MULT_id_1_mult_21_n41
*1461 i_MULT_id_1_mult_21_n40
*1462 i_MULT_id_1_mult_21_n39
*1463 i_MULT_id_1_mult_21_n38
*1464 i_MULT_id_1_mult_21_n37
*1465 i_MULT_id_1_mult_21_n36
*1466 i_MULT_id_1_mult_21_n34
*1467 i_MULT_id_1_mult_21_n33
*1468 i_MULT_id_1_mult_21_n32
*1469 i_MULT_id_1_mult_21_n31
*1470 i_MULT_id_1_mult_21_n30
*1471 i_MULT_id_1_mult_21_n29
*1472 i_MULT_id_1_mult_21_n28
*1473 i_MULT_id_1_mult_21_n27
*1474 i_MULT_id_1_mult_21_n26
*1475 i_MULT_id_1_mult_21_n24
*1476 i_MULT_id_1_mult_21_n23
*1477 i_MULT_id_1_mult_21_n22
*1478 i_MULT_id_1_mult_21_n21
*1479 i_MULT_id_1_mult_21_n20
*1480 i_MULT_id_1_mult_21_n19
*1481 i_MULT_id_1_mult_21_n8
*1482 i_MULT_id_1_mult_21_n7
*1483 i_MULT_id_1_mult_21_n6
*1484 i_MULT_id_1_mult_21_n5
*1485 i_MULT_id_1_mult_21_n4
*1486 i_MULT_id_1_mult_21_n3
*1487 i_MULT_id_1_mult_21_n2
*1488 i_MULT_id_2_multiplier_out_0_
*1489 i_MULT_id_2_mult_21_n380
*1490 i_MULT_id_2_mult_21_n379
*1491 i_MULT_id_2_mult_21_n378
*1492 i_MULT_id_2_mult_21_n377
*1493 i_MULT_id_2_mult_21_n376
*1494 i_MULT_id_2_mult_21_n375
*1495 i_MULT_id_2_mult_21_n374
*1496 i_MULT_id_2_mult_21_n373
*1497 i_MULT_id_2_mult_21_n372
*1498 i_MULT_id_2_mult_21_n371
*1499 i_MULT_id_2_mult_21_n370
*1500 i_MULT_id_2_mult_21_n369
*1501 i_MULT_id_2_mult_21_n368
*1502 i_MULT_id_2_mult_21_n367
*1503 i_MULT_id_2_mult_21_n366
*1504 i_MULT_id_2_mult_21_n365
*1505 i_MULT_id_2_mult_21_n364
*1506 i_MULT_id_2_mult_21_n363
*1507 i_MULT_id_2_mult_21_n362
*1508 i_MULT_id_2_mult_21_n361
*1509 i_MULT_id_2_mult_21_n360
*1510 i_MULT_id_2_mult_21_n359
*1511 i_MULT_id_2_mult_21_n358
*1512 i_MULT_id_2_mult_21_n357
*1513 i_MULT_id_2_mult_21_n356
*1514 i_MULT_id_2_mult_21_n355
*1515 i_MULT_id_2_mult_21_n354
*1516 i_MULT_id_2_mult_21_n353
*1517 i_MULT_id_2_mult_21_n352
*1518 i_MULT_id_2_mult_21_n351
*1519 i_MULT_id_2_mult_21_n350
*1520 i_MULT_id_2_mult_21_n349
*1521 i_MULT_id_2_mult_21_n348
*1522 i_MULT_id_2_mult_21_n347
*1523 i_MULT_id_2_mult_21_n346