*SPEF "IEEE 1481-1998"
*DESIGN "filter"
*DATE "Sat Nov  6 20:37:58 2021"
*VENDOR "Cadence Design Systems, Inc."
*PROGRAM "Innovus"
*VERSION "17.11-s080_1"
*DESIGN_FLOW "COUPLING C" "PIN_CAP NONE" "NAME_SCOPE LOCAL"
*DIVIDER /
*DELIMITER :
*BUS_DELIMITER []
*T_UNIT 1 NS
*C_UNIT 1 PF
*R_UNIT 1 OHM
*L_UNIT 1 HENRY

// MMMC spef file for corner 'my_rc'

*NAME_MAP

*1 RST_n
*2 CLK
*3 b0[8]
*4 b0[7]
*5 b0[6]
*6 b0[5]
*7 b0[4]
*8 b0[3]
*9 b0[2]
*10 b0[1]
*11 b0[0]
*12 b1[8]
*13 b1[7]
*14 b1[6]
*15 b1[5]
*16 b1[4]
*17 b1[3]
*18 b1[2]
*19 b1[1]
*20 b1[0]
*21 b2[8]
*22 b2[7]
*23 b2[6]
*24 b2[5]
*25 b2[4]
*26 b2[3]
*27 b2[2]
*28 b2[1]
*29 b2[0]
*30 b3[8]
*31 b3[7]
*32 b3[6]
*33 b3[5]
*34 b3[4]
*35 b3[3]
*36 b3[2]
*37 b3[1]
*38 b3[0]
*39 b4[8]
*40 b4[7]
*41 b4[6]
*42 b4[5]
*43 b4[4]
*44 b4[3]
*45 b4[2]
*46 b4[1]
*47 b4[0]
*48 b5[8]
*49 b5[7]
*50 b5[6]
*51 b5[5]
*52 b5[4]
*53 b5[3]
*54 b5[2]
*55 b5[1]
*56 b5[0]
*57 b6[8]
*58 b6[7]
*59 b6[6]
*60 b6[5]
*61 b6[4]
*62 b6[3]
*63 b6[2]
*64 b6[1]
*65 b6[0]
*66 b7[8]
*67 b7[7]
*68 b7[6]
*69 b7[5]
*70 b7[4]
*71 b7[3]
*72 b7[2]
*73 b7[1]
*74 b7[0]
*75 b8[8]
*76 b8[7]
*77 b8[6]
*78 b8[5]
*79 b8[4]
*80 b8[3]
*81 b8[2]
*82 b8[1]
*83 b8[0]
*84 b9[8]
*85 b9[7]
*86 b9[6]
*87 b9[5]
*88 b9[4]
*89 b9[3]
*90 b9[2]
*91 b9[1]
*92 b9[0]
*93 b10[8]
*94 b10[7]
*95 b10[6]
*96 b10[5]
*97 b10[4]
*98 b10[3]
*99 b10[2]
*100 b10[1]
*101 b10[0]
*102 VIN
*103 DIN[8]
*104 DIN[7]
*105 DIN[6]
*106 DIN[5]
*107 DIN[4]
*108 DIN[3]
*109 DIN[2]
*110 DIN[1]
*111 DIN[0]
*112 VOUT
*113 DOUT[8]
*114 DOUT[7]
*115 DOUT[6]
*116 DOUT[5]
*117 DOUT[4]
*118 DOUT[3]
*119 DOUT[2]
*120 DOUT[1]
*121 DOUT[0]
*122 FE_OFN4_RST_n
*123 FE_OFN3_RST_n
*124 FE_OFN2_RST_n
*125 FE_OFN1_in_VIN_d
*126 FE_OFN0_in_VIN_d
*127 in_VIN_d
*128 delay_line_10__4_
*129 delay_line_10__3_
*130 delay_line_10__2_
*131 delay_line_10__1_
*132 delay_line_10__0_
*133 delay_line_9__4_
*134 delay_line_9__3_
*135 delay_line_9__2_
*136 delay_line_9__1_
*137 delay_line_9__0_
*138 delay_line_8__4_
*139 delay_line_8__3_
*140 delay_line_8__2_
*141 delay_line_8__1_
*142 delay_line_8__0_
*143 delay_line_7__4_
*144 delay_line_7__3_
*145 delay_line_7__2_
*146 delay_line_7__1_
*147 delay_line_7__0_
*148 delay_line_6__4_
*149 delay_line_6__3_
*150 delay_line_6__2_
*151 delay_line_6__1_
*152 delay_line_6__0_
*153 delay_line_5__4_
*154 delay_line_5__3_
*155 delay_line_5__2_
*156 delay_line_5__1_
*157 delay_line_5__0_
*158 delay_line_4__4_
*159 delay_line_4__3_
*160 delay_line_4__2_
*161 delay_line_4__1_
*162 delay_line_4__0_
*163 delay_line_3__4_
*164 delay_line_3__3_
*165 delay_line_3__2_
*166 delay_line_3__1_
*167 delay_line_3__0_
*168 delay_line_2__4_
*169 delay_line_2__3_
*170 delay_line_2__2_
*171 delay_line_2__1_
*172 delay_line_2__0_
*173 delay_line_1__4_
*174 delay_line_1__3_
*175 delay_line_1__2_
*176 delay_line_1__1_
*177 delay_line_1__0_
*178 VIN_outDL
*179 sum_9__7_
*180 sum_9__6_
*181 sum_9__5_
*182 sum_9__4_
*183 sum_9__3_
*184 sum_9__2_
*185 sum_9__1_
*186 sum_9__0_
*187 sum_8__7_
*188 sum_8__6_
*189 sum_8__5_
*190 sum_8__4_
*191 sum_8__3_
*192 sum_8__2_
*193 sum_8__1_
*194 sum_8__0_
*195 sum_7__7_
*196 sum_7__6_
*197 sum_7__5_
*198 sum_7__4_
*199 sum_7__3_
*200 sum_7__2_
*201 sum_7__1_
*202 sum_7__0_
*203 sum_6__7_
*204 sum_6__6_
*205 sum_6__5_
*206 sum_6__4_
*207 sum_6__3_
*208 sum_6__2_
*209 sum_6__1_
*210 sum_6__0_
*211 sum_5__7_
*212 sum_5__6_
*213 sum_5__5_
*214 sum_5__4_
*215 sum_5__3_
*216 sum_5__2_
*217 sum_5__1_
*218 sum_5__0_
*219 sum_4__7_
*220 sum_4__6_
*221 sum_4__5_
*222 sum_4__4_
*223 sum_4__3_
*224 sum_4__2_
*225 sum_4__1_
*226 sum_4__0_
*227 sum_3__7_
*228 sum_3__6_
*229 sum_3__5_
*230 sum_3__4_
*231 sum_3__3_
*232 sum_3__2_
*233 sum_3__1_
*234 sum_3__0_
*235 sum_2__7_
*236 sum_2__6_
*237 sum_2__5_
*238 sum_2__4_
*239 sum_2__3_
*240 sum_2__2_
*241 sum_2__1_
*242 sum_2__0_
*243 sum_1__7_
*244 sum_1__6_
*245 sum_1__5_
*246 sum_1__4_
*247 sum_1__3_
*248 sum_1__2_
*249 sum_1__1_
*250 sum_1__0_
*251 sum_0__7_
*252 sum_0__5_
*253 sum_0__4_
*254 sum_0__3_
*255 sum_0__2_
*256 sum_0__1_
*257 sum_0__0_
*258 from_multiplier_to_adder_9__7_
*259 from_multiplier_to_adder_9__5_
*260 from_multiplier_to_adder_9__4_
*261 from_multiplier_to_adder_9__3_
*262 from_multiplier_to_adder_9__2_
*263 from_multiplier_to_adder_9__1_
*264 from_multiplier_to_adder_9__0_
*265 from_multiplier_to_adder_8__7_
*266 from_multiplier_to_adder_8__5_
*267 from_multiplier_to_adder_8__4_
*268 from_multiplier_to_adder_8__3_
*269 from_multiplier_to_adder_8__2_
*270 from_multiplier_to_adder_8__1_
*271 from_multiplier_to_adder_8__0_
*272 from_multiplier_to_adder_7__7_
*273 from_multiplier_to_adder_7__5_
*274 from_multiplier_to_adder_7__4_
*275 from_multiplier_to_adder_7__3_
*276 from_multiplier_to_adder_7__2_
*277 from_multiplier_to_adder_7__1_
*278 from_multiplier_to_adder_7__0_
*279 from_multiplier_to_adder_6__7_
*280 from_multiplier_to_adder_6__5_
*281 from_multiplier_to_adder_6__4_
*282 from_multiplier_to_adder_6__3_
*283 from_multiplier_to_adder_6__2_
*284 from_multiplier_to_adder_6__1_
*285 from_multiplier_to_adder_6__0_
*286 from_multiplier_to_adder_5__7_
*287 from_multiplier_to_adder_5__5_
*288 from_multiplier_to_adder_5__4_
*289 from_multiplier_to_adder_5__3_
*290 from_multiplier_to_adder_5__2_
*291 from_multiplier_to_adder_5__1_
*292 from_multiplier_to_adder_5__0_
*293 from_multiplier_to_adder_4__7_
*294 from_multiplier_to_adder_4__5_
*295 from_multiplier_to_adder_4__4_
*296 from_multiplier_to_adder_4__3_
*297 from_multiplier_to_adder_4__2_
*298 from_multiplier_to_adder_4__1_
*299 from_multiplier_to_adder_4__0_
*300 from_multiplier_to_adder_3__7_
*301 from_multiplier_to_adder_3__5_
*302 from_multiplier_to_adder_3__4_
*303 from_multiplier_to_adder_3__3_
*304 from_multiplier_to_adder_3__2_
*305 from_multiplier_to_adder_3__1_
*306 from_multiplier_to_adder_3__0_
*307 from_multiplier_to_adder_2__7_
*308 from_multiplier_to_adder_2__5_
*309 from_multiplier_to_adder_2__4_
*310 from_multiplier_to_adder_2__3_
*311 from_multiplier_to_adder_2__2_
*312 from_multiplier_to_adder_2__1_
*313 from_multiplier_to_adder_2__0_
*314 from_multiplier_to_adder_1__7_
*315 from_multiplier_to_adder_1__5_
*316 from_multiplier_to_adder_1__4_
*317 from_multiplier_to_adder_1__3_
*318 from_multiplier_to_adder_1__2_
*319 from_multiplier_to_adder_1__1_
*320 from_multiplier_to_adder_1__0_
*321 from_multiplier_to_adder_0__7_
*322 from_multiplier_to_adder_0__5_
*323 from_multiplier_to_adder_0__4_
*324 from_multiplier_to_adder_0__3_
*325 from_multiplier_to_adder_0__2_
*326 from_multiplier_to_adder_0__1_
*327 from_multiplier_to_adder_0__0_
*328 evaluated_VOUT
*329 i_regIN_DIN_n18
*330 i_regIN_DIN_n17
*331 i_regIN_DIN_n16
*332 i_regIN_DIN_n15
*333 i_regIN_DIN_n14
*334 i_regIN_DIN_n13
*335 i_regIN_DIN_n12
*336 i_regIN_DIN_n11
*337 i_regIN_DIN_n10
*338 i_regIN_DIN_REGISTER_OUT_Q_0_
*339 i_regIN_DIN_REGISTER_OUT_Q_1_
*340 i_regIN_DIN_REGISTER_OUT_Q_2_
*341 i_regIN_DIN_REGISTER_OUT_Q_3_
*342 i_ffIN_VIN_n2
*343 i_regIN_coeff_0_n45
*344 i_regIN_coeff_0_n44
*345 i_regIN_coeff_0_n43
*346 i_regIN_coeff_0_n42
*347 i_regIN_coeff_0_n41
*348 i_regIN_coeff_0_n40
*349 i_regIN_coeff_0_n39
*350 i_regIN_coeff_0_n38
*351 i_regIN_coeff_0_n37
*352 i_regIN_coeff_1_n45
*353 i_regIN_coeff_1_n44
*354 i_regIN_coeff_1_n43
*355 i_regIN_coeff_1_n42
*356 i_regIN_coeff_1_n41
*357 i_regIN_coeff_1_n40
*358 i_regIN_coeff_1_n39
*359 i_regIN_coeff_1_n38
*360 i_regIN_coeff_1_n37
*361 i_regIN_coeff_2_n45
*362 i_regIN_coeff_2_n44
*363 i_regIN_coeff_2_n43
*364 i_regIN_coeff_2_n42
*365 i_regIN_coeff_2_n41
*366 i_regIN_coeff_2_n40
*367 i_regIN_coeff_2_n39
*368 i_regIN_coeff_2_n38
*369 i_regIN_coeff_2_n37
*370 i_regIN_coeff_3_n45
*371 i_regIN_coeff_3_n44
*372 i_regIN_coeff_3_n43
*373 i_regIN_coeff_3_n42
*374 i_regIN_coeff_3_n41
*375 i_regIN_coeff_3_n40
*376 i_regIN_coeff_3_n39
*377 i_regIN_coeff_3_n38
*378 i_regIN_coeff_3_n37
*379 i_regIN_coeff_4_n45
*380 i_regIN_coeff_4_n44
*381 i_regIN_coeff_4_n43
*382 i_regIN_coeff_4_n42
*383 i_regIN_coeff_4_n41
*384 i_regIN_coeff_4_n40
*385 i_regIN_coeff_4_n39
*386 i_regIN_coeff_4_n38
*387 i_regIN_coeff_4_n37
*388 i_regIN_coeff_5_n45
*389 i_regIN_coeff_5_n44
*390 i_regIN_coeff_5_n43
*391 i_regIN_coeff_5_n42
*392 i_regIN_coeff_5_n41
*393 i_regIN_coeff_5_n40
*394 i_regIN_coeff_5_n39
*395 i_regIN_coeff_5_n38
*396 i_regIN_coeff_5_n37
*397 i_regIN_coeff_6_n45
*398 i_regIN_coeff_6_n44
*399 i_regIN_coeff_6_n43
*400 i_regIN_coeff_6_n42
*401 i_regIN_coeff_6_n41
*402 i_regIN_coeff_6_n40
*403 i_regIN_coeff_6_n39
*404 i_regIN_coeff_6_n38
*405 i_regIN_coeff_6_n37
*406 i_regIN_coeff_7_n45
*407 i_regIN_coeff_7_n44
*408 i_regIN_coeff_7_n43
*409 i_regIN_coeff_7_n42
*410 i_regIN_coeff_7_n41
*411 i_regIN_coeff_7_n40
*412 i_regIN_coeff_7_n39
*413 i_regIN_coeff_7_n38
*414 i_regIN_coeff_7_n37
*415 i_regIN_coeff_8_n45
*416 i_regIN_coeff_8_n44
*417 i_regIN_coeff_8_n43
*418 i_regIN_coeff_8_n42
*419 i_regIN_coeff_8_n41
*420 i_regIN_coeff_8_n40
*421 i_regIN_coeff_8_n39
*422 i_regIN_coeff_8_n38
*423 i_regIN_coeff_8_n37
*424 i_regIN_coeff_9_n45
*425 i_regIN_coeff_9_n44
*426 i_regIN_coeff_9_n43
*427 i_regIN_coeff_9_n42
*428 i_regIN_coeff_9_n41
*429 i_regIN_coeff_9_n40
*430 i_regIN_coeff_9_n39
*431 i_regIN_coeff_9_n38
*432 i_regIN_coeff_9_n37
*433 i_regIN_coeff_10_n45
*434 i_regIN_coeff_10_n44
*435 i_regIN_coeff_10_n43
*436 i_regIN_coeff_10_n42
*437 i_regIN_coeff_10_n41
*438 i_regIN_coeff_10_n40
*439 i_regIN_coeff_10_n39
*440 i_regIN_coeff_10_n38
*441 i_regIN_coeff_10_n37
*442 i_reg_DL_0_n15
*443 i_reg_DL_0_n14
*444 i_reg_DL_0_n13
*445 i_reg_DL_0_n12
*446 i_reg_DL_0_n11
*447 i_reg_DL_0_n10
*448 i_reg_DL_0_n9
*449 i_reg_DL_0_n8
*450 i_reg_DL_0_n7
*451 i_reg_DL_0_n6
*452 i_reg_DL_0_n5
*453 i_reg_DL_0_n4
*454 i_reg_DL_0_n3
*455 i_reg_DL_0_n2
*456 i_reg_DL_0_n1
*457 i_reg_DL_1_n31
*458 i_reg_DL_1_n30
*459 i_reg_DL_1_n29
*460 i_reg_DL_1_n28
*461 i_reg_DL_1_n27
*462 i_reg_DL_1_n26
*463 i_reg_DL_1_n25
*464 i_reg_DL_1_n24
*465 i_reg_DL_1_n23
*466 i_reg_DL_1_n22
*467 i_reg_DL_1_n21
*468 i_reg_DL_1_n20
*469 i_reg_DL_1_n19
*470 i_reg_DL_1_n18
*471 i_reg_DL_1_n17
*472 i_reg_DL_2_n31
*473 i_reg_DL_2_n30
*474 i_reg_DL_2_n29
*475 i_reg_DL_2_n28
*476 i_reg_DL_2_n27
*477 i_reg_DL_2_n26
*478 i_reg_DL_2_n25
*479 i_reg_DL_2_n24
*480 i_reg_DL_2_n23
*481 i_reg_DL_2_n22
*482 i_reg_DL_2_n21
*483 i_reg_DL_2_n20
*484 i_reg_DL_2_n19
*485 i_reg_DL_2_n18
*486 i_reg_DL_2_n17
*487 i_reg_DL_3_n31
*488 i_reg_DL_3_n30
*489 i_reg_DL_3_n29
*490 i_reg_DL_3_n28
*491 i_reg_DL_3_n27
*492 i_reg_DL_3_n26
*493 i_reg_DL_3_n25
*494 i_reg_DL_3_n24
*495 i_reg_DL_3_n23
*496 i_reg_DL_3_n22
*497 i_reg_DL_3_n21
*498 i_reg_DL_3_n20
*499 i_reg_DL_3_n19
*500 i_reg_DL_3_n18
*501 i_reg_DL_3_n17
*502 i_reg_DL_4_n31
*503 i_reg_DL_4_n30
*504 i_reg_DL_4_n29
*505 i_reg_DL_4_n28
*506 i_reg_DL_4_n27
*507 i_reg_DL_4_n26
*508 i_reg_DL_4_n25
*509 i_reg_DL_4_n24
*510 i_reg_DL_4_n23
*511 i_reg_DL_4_n22
*512 i_reg_DL_4_n21
*513 i_reg_DL_4_n20
*514 i_reg_DL_4_n19
*515 i_reg_DL_4_n18
*516 i_reg_DL_4_n17
*517 i_reg_DL_5_n31
*518 i_reg_DL_5_n30
*519 i_reg_DL_5_n29
*520 i_reg_DL_5_n28
*521 i_reg_DL_5_n27
*522 i_reg_DL_5_n26
*523 i_reg_DL_5_n25
*524 i_reg_DL_5_n24
*525 i_reg_DL_5_n23
*526 i_reg_DL_5_n22
*527 i_reg_DL_5_n21
*528 i_reg_DL_5_n20
*529 i_reg_DL_5_n19
*530 i_reg_DL_5_n18
*531 i_reg_DL_5_n17
*532 i_reg_DL_6_n31
*533 i_reg_DL_6_n30
*534 i_reg_DL_6_n29
*535 i_reg_DL_6_n28
*536 i_reg_DL_6_n27
*537 i_reg_DL_6_n26
*538 i_reg_DL_6_n25
*539 i_reg_DL_6_n24
*540 i_reg_DL_6_n23
*541 i_reg_DL_6_n22
*542 i_reg_DL_6_n21
*543 i_reg_DL_6_n20
*544 i_reg_DL_6_n19
*545 i_reg_DL_6_n18
*546 i_reg_DL_6_n17
*547 i_reg_DL_7_n31
*548 i_reg_DL_7_n30
*549 i_reg_DL_7_n29
*550 i_reg_DL_7_n28
*551 i_reg_DL_7_n27
*552 i_reg_DL_7_n26
*553 i_reg_DL_7_n25
*554 i_reg_DL_7_n24
*555 i_reg_DL_7_n23
*556 i_reg_DL_7_n22
*557 i_reg_DL_7_n21
*558 i_reg_DL_7_n20
*559 i_reg_DL_7_n19
*560 i_reg_DL_7_n18
*561 i_reg_DL_7_n17
*562 i_reg_DL_8_n31
*563 i_reg_DL_8_n30
*564 i_reg_DL_8_n29
*565 i_reg_DL_8_n28
*566 i_reg_DL_8_n27
*567 i_reg_DL_8_n26
*568 i_reg_DL_8_n25
*569 i_reg_DL_8_n24
*570 i_reg_DL_8_n23
*571 i_reg_DL_8_n22
*572 i_reg_DL_8_n21
*573 i_reg_DL_8_n20
*574 i_reg_DL_8_n19
*575 i_reg_DL_8_n18
*576 i_reg_DL_8_n17
*577 i_reg_DL_9_n31
*578 i_reg_DL_9_n30
*579 i_reg_DL_9_n29
*580 i_reg_DL_9_n28
*581 i_reg_DL_9_n27
*582 i_reg_DL_9_n26
*583 i_reg_DL_9_n25
*584 i_reg_DL_9_n24
*585 i_reg_DL_9_n23
*586 i_reg_DL_9_n22
*587 i_reg_DL_9_n21
*588 i_reg_DL_9_n20
*589 i_reg_DL_9_n19
*590 i_reg_DL_9_n18
*591 i_reg_DL_9_n17
*592 i_shift_reg_n1
*593 i_shift_reg_n22
*594 i_shift_reg_n21
*595 i_shift_reg_n20
*596 i_shift_reg_n19
*597 i_shift_reg_n18
*598 i_shift_reg_n17
*599 i_shift_reg_n16
*600 i_shift_reg_n15
*601 i_shift_reg_n14
*602 i_shift_reg_n13
*603 i_shift_reg_n12
*604 i_shift_reg_n11
*605 i_shift_reg_n10
*606 i_shift_reg_n9
*607 i_shift_reg_n8
*608 i_shift_reg_n7
*609 i_shift_reg_n6
*610 i_shift_reg_n5
*611 i_shift_reg_n4
*612 i_shift_reg_n3
*613 i_shift_reg_n2
*614 i_mult_0_MULTIPLIER_OUT_PRODUCT_0_
*615 i_mult_0_mult_30_n176
*616 i_mult_0_mult_30_n175
*617 i_mult_0_mult_30_n174
*618 i_mult_0_mult_30_n173
*619 i_mult_0_mult_30_n172
*620 i_mult_0_mult_30_n171
*621 i_mult_0_mult_30_n170
*622 i_mult_0_mult_30_n169
*623 i_mult_0_mult_30_n168
*624 i_mult_0_mult_30_n167
*625 i_mult_0_mult_30_n166
*626 i_mult_0_mult_30_n165
*627 i_mult_0_mult_30_n164
*628 i_mult_0_mult_30_n163
*629 i_mult_0_mult_30_n162
*630 i_mult_0_mult_30_n161
*631 i_mult_0_mult_30_n160
*632 i_mult_0_mult_30_n159
*633 i_mult_0_mult_30_n158
*634 i_mult_0_mult_30_n157
*635 i_mult_0_mult_30_n156
*636 i_mult_0_mult_30_n155
*637 i_mult_0_mult_30_n154
*638 i_mult_0_mult_30_n153
*639 i_mult_0_mult_30_n152
*640 i_mult_0_mult_30_n151
*641 i_mult_0_mult_30_n104
*642 i_mult_0_mult_30_n103
*643 i_mult_0_mult_30_n101
*644 i_mult_0_mult_30_n100
*645 i_mult_0_mult_30_n99
*646 i_mult_0_mult_30_n98
*647 i_mult_0_mult_30_n96
*648 i_mult_0_mult_30_n95
*649 i_mult_0_mult_30_n94
*650 i_mult_0_mult_30_n93
*651 i_mult_0_mult_30_n92
*652 i_mult_0_mult_30_n91
*653 i_mult_0_mult_30_n90
*654 i_mult_0_mult_30_n89
*655 i_mult_0_mult_30_n87
*656 i_mult_0_mult_30_n85
*657 i_mult_0_mult_30_n84
*658 i_mult_0_mult_30_n83
*659 i_mult_0_mult_30_n82
*660 i_mult_0_mult_30_n81
*661 i_mult_0_mult_30_n80
*662 i_mult_0_mult_30_n79
*663 i_mult_0_mult_30_n78
*664 i_mult_0_mult_30_n77
*665 i_mult_0_mult_30_n76
*666 i_mult_0_mult_30_n75
*667 i_mult_0_mult_30_n74
*668 i_mult_0_mult_30_n73
*669 i_mult_0_mult_30_n72
*670 i_mult_0_mult_30_n71
*671 i_mult_0_mult_30_n70
*672 i_mult_0_mult_30_n69
*673 i_mult_0_mult_30_n68
*674 i_mult_0_mult_30_n67
*675 i_mult_0_mult_30_n66
*676 i_mult_0_mult_30_n65
*677 i_mult_0_mult_30_n64
*678 i_mult_0_mult_30_n62
*679 i_mult_0_mult_30_n61
*680 i_mult_0_mult_30_n60
*681 i_mult_0_mult_30_n59
*682 i_mult_0_mult_30_n58
*683 i_mult_0_mult_30_n57
*684 i_mult_0_mult_30_n56
*685 i_mult_0_mult_30_n55
*686 i_mult_0_mult_30_n54
*687 i_mult_0_mult_30_n53
*688 i_mult_0_mult_30_n52
*689 i_mult_0_mult_30_n51
*690 i_mult_0_mult_30_n50
*691 i_mult_0_mult_30_n49
*692 i_mult_0_mult_30_n48
*693 i_mult_0_mult_30_n47
*694 i_mult_0_mult_30_n46
*695 i_mult_0_mult_30_n45
*696 i_mult_0_mult_30_n44
*697 i_mult_0_mult_30_n43
*698 i_mult_0_mult_30_n42
*699 i_mult_0_mult_30_n41
*700 i_mult_0_mult_30_n40
*701 i_mult_0_mult_30_n39
*702 i_mult_0_mult_30_n38
*703 i_mult_0_mult_30_n37
*704 i_mult_0_mult_30_n36
*705 i_mult_0_mult_30_n35
*706 i_mult_0_mult_30_n34
*707 i_mult_0_mult_30_n33
*708 i_mult_0_mult_30_n32
*709 i_mult_0_mult_30_n30
*710 i_mult_0_mult_30_n29
*711 i_mult_0_mult_30_n28
*712 i_mult_0_mult_30_n27
*713 i_mult_0_mult_30_n26
*714 i_mult_0_mult_30_n25
*715 i_mult_0_mult_30_n24
*716 i_mult_0_mult_30_n23
*717 i_mult_0_mult_30_n22
*718 i_mult_0_mult_30_n21
*719 i_mult_0_mult_30_n20
*720 i_mult_0_mult_30_n19
*721 i_mult_0_mult_30_n18
*722 i_mult_0_mult_30_n17
*723 i_mult_0_mult_30_n16
*724 i_mult_0_mult_30_n15
*725 i_mult_0_mult_30_n14
*726 i_mult_0_mult_30_n13
*727 i_mult_0_mult_30_n8
*728 i_mult_0_mult_30_n7
*729 i_mult_0_mult_30_n6
*730 i_mult_0_mult_30_n5
*731 i_mult_0_mult_30_n4
*732 i_mult_0_mult_30_n3
*733 i_mult_0_mult_30_n2
*734 i_mult_1_MULTIPLIER_OUT_PRODUCT_0_
*735 i_mult_1_mult_30_n176
*736 i_mult_1_mult_30_n175
*737 i_mult_1_mult_30_n174
*738 i_mult_1_mult_30_n173
*739 i_mult_1_mult_30_n172
*740 i_mult_1_mult_30_n171
*741 i_mult_1_mult_30_n170
*742 i_mult_1_mult_30_n169
*743 i_mult_1_mult_30_n168
*744 i_mult_1_mult_30_n167
*745 i_mult_1_mult_30_n166
*746 i_mult_1_mult_30_n165
*747 i_mult_1_mult_30_n164
*748 i_mult_1_mult_30_n163
*749 i_mult_1_mult_30_n162
*750 i_mult_1_mult_30_n161
*751 i_mult_1_mult_30_n160
*752 i_mult_1_mult_30_n159
*753 i_mult_1_mult_30_n158
*754 i_mult_1_mult_30_n157
*755 i_mult_1_mult_30_n156
*756 i_mult_1_mult_30_n155
*757 i_mult_1_mult_30_n154
*758 i_mult_1_mult_30_n153
*759 i_mult_1_mult_30_n152
*760 i_mult_1_mult_30_n151
*761 i_mult_1_mult_30_n104
*762 i_mult_1_mult_30_n103
*763 i_mult_1_mult_30_n101
*764 i_mult_1_mult_30_n100
*765 i_mult_1_mult_30_n99
*766 i_mult_1_mult_30_n98
*767 i_mult_1_mult_30_n96
*768 i_mult_1_mult_30_n95
*769 i_mult_1_mult_30_n94
*770 i_mult_1_mult_30_n93
*771 i_mult_1_mult_30_n92
*772 i_mult_1_mult_30_n91
*773 i_mult_1_mult_30_n90
*774 i_mult_1_mult_30_n89
*775 i_mult_1_mult_30_n87
*776 i_mult_1_mult_30_n85
*777 i_mult_1_mult_30_n84
*778 i_mult_1_mult_30_n83
*779 i_mult_1_mult_30_n82
*780 i_mult_1_mult_30_n81
*781 i_mult_1_mult_30_n80
*782 i_mult_1_mult_30_n79
*783 i_mult_1_mult_30_n78
*784 i_mult_1_mult_30_n77
*785 i_mult_1_mult_30_n76
*786 i_mult_1_mult_30_n75
*787 i_mult_1_mult_30_n74
*788 i_mult_1_mult_30_n73
*789 i_mult_1_mult_30_n72
*790 i_mult_1_mult_30_n71
*791 i_mult_1_mult_30_n70
*792 i_mult_1_mult_30_n69
*793 i_mult_1_mult_30_n68
*794 i_mult_1_mult_30_n67
*795 i_mult_1_mult_30_n66
*796 i_mult_1_mult_30_n65
*797 i_mult_1_mult_30_n64
*798 i_mult_1_mult_30_n62
*799 i_mult_1_mult_30_n61
*800 i_mult_1_mult_30_n60
*801 i_mult_1_mult_30_n59
*802 i_mult_1_mult_30_n58
*803 i_mult_1_mult_30_n57
*804 i_mult_1_mult_30_n56
*805 i_mult_1_mult_30_n55
*806 i_mult_1_mult_30_n54
*807 i_mult_1_mult_30_n53
*808 i_mult_1_mult_30_n52
*809 i_mult_1_mult_30_n51
*810 i_mult_1_mult_30_n50
*811 i_mult_1_mult_30_n49
*812 i_mult_1_mult_30_n48
*813 i_mult_1_mult_30_n47
*814 i_mult_1_mult_30_n46
*815 i_mult_1_mult_30_n45
*816 i_mult_1_mult_30_n44
*817 i_mult_1_mult_30_n43
*818 i_mult_1_mult_30_n42
*819 i_mult_1_mult_30_n41
*820 i_mult_1_mult_30_n40
*821 i_mult_1_mult_30_n39
*822 i_mult_1_mult_30_n38
*823 i_mult_1_mult_30_n37
*824 i_mult_1_mult_30_n36
*825 i_mult_1_mult_30_n35
*826 i_mult_1_mult_30_n34
*827 i_mult_1_mult_30_n33
*828 i_mult_1_mult_30_n32
*829 i_mult_1_mult_30_n30
*830 i_mult_1_mult_30_n29
*831 i_mult_1_mult_30_n28
*832 i_mult_1_mult_30_n27
*833 i_mult_1_mult_30_n26
*834 i_mult_1_mult_30_n25
*835 i_mult_1_mult_30_n24
*836 i_mult_1_mult_30_n23
*837 i_mult_1_mult_30_n22
*838 i_mult_1_mult_30_n21
*839 i_mult_1_mult_30_n20
*840 i_mult_1_mult_30_n19
*841 i_mult_1_mult_30_n18
*842 i_mult_1_mult_30_n17
*843 i_mult_1_mult_30_n16
*844 i_mult_1_mult_30_n15
*845 i_mult_1_mult_30_n14
*846 i_mult_1_mult_30_n13
*847 i_mult_1_mult_30_n8
*848 i_mult_1_mult_30_n7
*849 i_mult_1_mult_30_n6
*850 i_mult_1_mult_30_n5
*851 i_mult_1_mult_30_n4
*852 i_mult_1_mult_30_n3
*853 i_mult_1_mult_30_n2
*854 i_mult_2_MULTIPLIER_OUT_PRODUCT_0_
*855 i_mult_2_mult_30_n176
*856 i_mult_2_mult_30_n175
*857 i_mult_2_mult_30_n174
*858 i_mult_2_mult_30_n173
*859 i_mult_2_mult_30_n172
*860 i_mult_2_mult_30_n171
*861 i_mult_2_mult_30_n170
*862 i_mult_2_mult_30_n169
*863 i_mult_2_mult_30_n168
*864 i_mult_2_mult_30_n167
*865 i_mult_2_mult_30_n166
*866 i_mult_2_mult_30_n165
*867 i_mult_2_mult_30_n164
*868 i_mult_2_mult_30_n163
*869 i_mult_2_mult_30_n162
*870 i_mult_2_mult_30_n161
*871 i_mult_2_mult_30_n160
*872 i_mult_2_mult_30_n159
*873 i_mult_2_mult_30_n158
*874 i_mult_2_mult_30_n157
*875 i_mult_2_mult_30_n156
*876 i_mult_2_mult_30_n155
*877 i_mult_2_mult_30_n154
*878 i_mult_2_mult_30_n153
*879 i_mult_2_mult_30_n152
*880 i_mult_2_mult_30_n151
*881 i_mult_2_mult_30_n104
*882 i_mult_2_mult_30_n103
*883 i_mult_2_mult_30_n101
*884 i_mult_2_mult_30_n100
*885 i_mult_2_mult_30_n99
*886 i_mult_2_mult_30_n98
*887 i_mult_2_mult_30_n96
*888 i_mult_2_mult_30_n95
*889 i_mult_2_mult_30_n94
*890 i_mult_2_mult_30_n93
*891 i_mult_2_mult_30_n92
*892 i_mult_2_mult_30_n91
*893 i_mult_2_mult_30_n90
*894 i_mult_2_mult_30_n89
*895 i_mult_2_mult_30_n87
*896 i_mult_2_mult_30_n85
*897 i_mult_2_mult_30_n84
*898 i_mult_2_mult_30_n83
*899 i_mult_2_mult_30_n82
*900 i_mult_2_mult_30_n81
*901 i_mult_2_mult_30_n80
*902 i_mult_2_mult_30_n79
*903 i_mult_2_mult_30_n78
*904 i_mult_2_mult_30_n77
*905 i_mult_2_mult_30_n76
*906 i_mult_2_mult_30_n75
*907 i_mult_2_mult_30_n74
*908 i_mult_2_mult_30_n73
*909 i_mult_2_mult_30_n72
*910 i_mult_2_mult_30_n71
*911 i_mult_2_mult_30_n70
*912 i_mult_2_mult_30_n69
*913 i_mult_2_mult_30_n68
*914 i_mult_2_mult_30_n67
*915 i_mult_2_mult_30_n66
*916 i_mult_2_mult_30_n65
*917 i_mult_2_mult_30_n64
*918 i_mult_2_mult_30_n62
*919 i_mult_2_mult_30_n61
*920 i_mult_2_mult_30_n60
*921 i_mult_2_mult_30_n59
*922 i_mult_2_mult_30_n58
*923 i_mult_2_mult_30_n57
*924 i_mult_2_mult_30_n56
*925 i_mult_2_mult_30_n55
*926 i_mult_2_mult_30_n54
*927 i_mult_2_mult_30_n53
*928 i_mult_2_mult_30_n52
*929 i_mult_2_mult_30_n51
*930 i_mult_2_mult_30_n50
*931 i_mult_2_mult_30_n49
*932 i_mult_2_mult_30_n48
*933 i_mult_2_mult_30_n47
*934 i_mult_2_mult_30_n46
*935 i_mult_2_mult_30_n45
*936 i_mult_2_mult_30_n44
*937 i_mult_2_mult_30_n43
*938 i_mult_2_mult_30_n42
*939 i_mult_2_mult_30_n41
*940 i_mult_2_mult_30_n40
*941 i_mult_2_mult_30_n39
*942 i_mult_2_mult_30_n38
*943 i_mult_2_mult_30_n37
*944 i_mult_2_mult_30_n36
*945 i_mult_2_mult_30_n35
*946 i_mult_2_mult_30_n34
*947 i_mult_2_mult_30_n33
*948 i_mult_2_mult_30_n32
*949 i_mult_2_mult_30_n30
*950 i_mult_2_mult_30_n29
*951 i_mult_2_mult_30_n28
*952 i_mult_2_mult_30_n27
*953 i_mult_2_mult_30_n26
*954 i_mult_2_mult_30_n25
*955 i_mult_2_mult_30_n24
*956 i_mult_2_mult_30_n23
*957 i_mult_2_mult_30_n22
*958 i_mult_2_mult_30_n21
*959 i_mult_2_mult_30_n20
*960 i_mult_2_mult_30_n19
*961 i_mult_2_mult_30_n18
*962 i_mult_2_mult_30_n17
*963 i_mult_2_mult_30_n16
*964 i_mult_2_mult_30_n15
*965 i_mult_2_mult_30_n14
*966 i_mult_2_mult_30_n13
*967 i_mult_2_mult_30_n8
*968 i_mult_2_mult_30_n7
*969 i_mult_2_mult_30_n6
*970 i_mult_2_mult_30_n5
*971 i_mult_2_mult_30_n4
*972 i_mult_2_mult_30_n3
*973 i_mult_2_mult_30_n2
*974 i_mult_3_MULTIPLIER_OUT_PRODUCT_0_
*975 i_mult_3_mult_30_n176
*976 i_mult_3_mult_30_n175
*977 i_mult_3_mult_30_n174
*978 i_mult_3_mult_30_n173
*979 i_mult_3_mult_30_n172
*980 i_mult_3_mult_30_n171
*981 i_mult_3_mult_30_n170
*982 i_mult_3_mult_30_n169
*983 i_mult_3_mult_30_n168
*984 i_mult_3_mult_30_n167
*985 i_mult_3_mult_30_n166
*986 i_mult_3_mult_30_n165
*987 i_mult_3_mult_30_n164
*988 i_mult_3_mult_30_n163
*989 i_mult_3_mult_30_n162
*990 i_mult_3_mult_30_n161
*991 i_mult_3_mult_30_n160
*992 i_mult_3_mult_30_n159
*993 i_mult_3_mult_30_n158
*994 i_mult_3_mult_30_n157
*995 i_mult_3_mult_30_n156
*996 i_mult_3_mult_30_n155
*997 i_mult_3_mult_30_n154
*998 i_mult_3_mult_30_n153
*999 i_mult_3_mult_30_n152
*1000 i_mult_3_mult_30_n151
*1001 i_mult_3_mult_30_n104
*1002 i_mult_3_mult_30_n103
*1003 i_mult_3_mult_30_n101
*1004 i_mult_3_mult_30_n100
*1005 i_mult_3_mult_30_n99
*1006 i_mult_3_mult_30_n98
*1007 i_mult_3_mult_30_n96
*1008 i_mult_3_mult_30_n95
*1009 i_mult_3_mult_30_n94
*1010 i_mult_3_mult_30_n93
*1011 i_mult_3_mult_30_n92
*1012 i_mult_3_mult_30_n91
*1013 i_mult_3_mult_30_n90
*1014 i_mult_3_mult_30_n89
*1015 i_mult_3_mult_30_n87
*1016 i_mult_3_mult_30_n85
*1017 i_mult_3_mult_30_n84
*1018 i_mult_3_mult_30_n83
*1019 i_mult_3_mult_30_n82
*1020 i_mult_3_mult_30_n81
*1021 i_mult_3_mult_30_n80
*1022 i_mult_3_mult_30_n79
*1023 i_mult_3_mult_30_n78
*1024 i_mult_3_mult_30_n77
*1025 i_mult_3_mult_30_n76
*1026 i_mult_3_mult_30_n75
*1027 i_mult_3_mult_30_n74
*1028 i_mult_3_mult_30_n73
*1029 i_mult_3_mult_30_n72
*1030 i_mult_3_mult_30_n71
*1031 i_mult_3_mult_30_n70
*1032 i_mult_3_mult_30_n69
*1033 i_mult_3_mult_30_n68
*1034 i_mult_3_mult_30_n67
*1035 i_mult_3_mult_30_n66
*1036 i_mult_3_mult_30_n65
*1037 i_mult_3_mult_30_n64
*1038 i_mult_3_mult_30_n62
*1039 i_mult_3_mult_30_n61
*1040 i_mult_3_mult_30_n60
*1041 i_mult_3_mult_30_n59
*1042 i_mult_3_mult_30_n58
*1043 i_mult_3_mult_30_n57
*1044 i_mult_3_mult_30_n56
*1045 i_mult_3_mult_30_n55
*1046 i_mult_3_mult_30_n54
*1047 i_mult_3_mult_30_n53
*1048 i_mult_3_mult_30_n52
*1049 i_mult_3_mult_30_n51
*1050 i_mult_3_mult_30_n50
*1051 i_mult_3_mult_30_n49
*1052 i_mult_3_mult_30_n48
*1053 i_mult_3_mult_30_n47
*1054 i_mult_3_mult_30_n46
*1055 i_mult_3_mult_30_n45
*1056 i_mult_3_mult_30_n44
*1057 i_mult_3_mult_30_n43
*1058 i_mult_3_mult_30_n42
*1059 i_mult_3_mult_30_n41
*1060 i_mult_3_mult_30_n40
*1061 i_mult_3_mult_30_n39
*1062 i_mult_3_mult_30_n38
*1063 i_mult_3_mult_30_n37
*1064 i_mult_3_mult_30_n36
*1065 i_mult_3_mult_30_n35
*1066 i_mult_3_mult_30_n34
*1067 i_mult_3_mult_30_n33
*1068 i_mult_3_mult_30_n32
*1069 i_mult_3_mult_30_n30
*1070 i_mult_3_mult_30_n29
*1071 i_mult_3_mult_30_n28
*1072 i_mult_3_mult_30_n27
*1073 i_mult_3_mult_30_n26
*1074 i_mult_3_mult_30_n25
*1075 i_mult_3_mult_30_n24
*1076 i_mult_3_mult_30_n23
*1077 i_mult_3_mult_30_n22
*1078 i_mult_3_mult_30_n21
*1079 i_mult_3_mult_30_n20
*1080 i_mult_3_mult_30_n19
*1081 i_mult_3_mult_30_n18
*1082 i_mult_3_mult_30_n17
*1083 i_mult_3_mult_30_n16
*1084 i_mult_3_mult_30_n15
*1085 i_mult_3_mult_30_n14
*1086 i_mult_3_mult_30_n13
*1087 i_mult_3_mult_30_n8
*1088 i_mult_3_mult_30_n7
*1089 i_mult_3_mult_30_n6
*1090 i_mult_3_mult_30_n5
*1091 i_mult_3_mult_30_n4
*1092 i_mult_3_mult_30_n3
*1093 i_mult_3_mult_30_n2
*1094 i_mult_4_MULTIPLIER_OUT_PRODUCT_0_
*1095 i_mult_4_mult_30_n176
*1096 i_mult_4_mult_30_n175
*1097 i_mult_4_mult_30_n174
*1098 i_mult_4_mult_30_n173
*1099 i_mult_4_mult_30_n172
*1100 i_mult_4_mult_30_n171
*1101 i_mult_4_mult_30_n170
*1102 i_mult_4_mult_30_n169
*1103 i_mult_4_mult_30_n168
*1104 i_mult_4_mult_30_n167
*1105 i_mult_4_mult_30_n166
*1106 i_mult_4_mult_30_n165
*1107 i_mult_4_mult_30_n164
*1108 i_mult_4_mult_30_n163
*1109 i_mult_4_mult_30_n162
*1110 i_mult_4_mult_30_n161
*1111 i_mult_4_mult_30_n160
*1112 i_mult_4_mult_30_n159
*1113 i_mult_4_mult_30_n158
*1114 i_mult_4_mult_30_n157
*1115 i_mult_4_mult_30_n156
*1116 i_mult_4_mult_30_n155
*1117 i_mult_4_mult_30_n154
*1118 i_mult_4_mult_30_n153
*1119 i_mult_4_mult_30_n152
*1120 i_mult_4_mult_30_n151
*1121 i_mult_4_mult_30_n104
*1122 i_mult_4_mult_30_n103
*1123 i_mult_4_mult_30_n101
*1124 i_mult_4_mult_30_n100
*1125 i_mult_4_mult_30_n99
*1126 i_mult_4_mult_30_n98
*1127 i_mult_4_mult_30_n96
*1128 i_mult_4_mult_30_n95
*1129 i_mult_4_mult_30_n94
*1130 i_mult_4_mult_30_n93
*1131 i_mult_4_mult_30_n92
*1132 i_mult_4_mult_30_n91
*1133 i_mult_4_mult_30_n90
*1134 i_mult_4_mult_30_n89
*1135 i_mult_4_mult_30_n87
*1136 i_mult_4_mult_30_n85
*1137 i_mult_4_mult_30_n84
*1138 i_mult_4_mult_30_n83
*1139 i_mult_4_mult_30_n82
*1140 i_mult_4_mult_30_n81
*1141 i_mult_4_mult_30_n80
*1142 i_mult_4_mult_30_n79
*1143 i_mult_4_mult_30_n78
*1144 i_mult_4_mult_30_n77
*1145 i_mult_4_mult_30_n76
*1146 i_mult_4_mult_30_n75
*1147 i_mult_4_mult_30_n74
*1148 i_mult_4_mult_30_n73
*1149 i_mult_4_mult_30_n72
*1150 i_mult_4_mult_30_n71
*1151 i_mult_4_mult_30_n70
*1152 i_mult_4_mult_30_n69
*1153 i_mult_4_mult_30_n68
*1154 i_mult_4_mult_30_n67
*1155 i_mult_4_mult_30_n66
*1156 i_mult_4_mult_30_n65
*1157 i_mult_4_mult_30_n64
*1158 i_mult_4_mult_30_n62
*1159 i_mult_4_mult_30_n61
*1160 i_mult_4_mult_30_n60
*1161 i_mult_4_mult_30_n59
*1162 i_mult_4_mult_30_n58
*1163 i_mult_4_mult_30_n57
*1164 i_mult_4_mult_30_n56
*1165 i_mult_4_mult_30_n55
*1166 i_mult_4_mult_30_n54
*1167 i_mult_4_mult_30_n53
*1168 i_mult_4_mult_30_n52
*1169 i_mult_4_mult_30_n51
*1170 i_mult_4_mult_30_n50
*1171 i_mult_4_mult_30_n49
*1172 i_mult_4_mult_30_n48
*1173 i_mult_4_mult_30_n47
*1174 i_mult_4_mult_30_n46
*1175 i_mult_4_mult_30_n45
*1176 i_mult_4_mult_30_n44
*1177 i_mult_4_mult_30_n43
*1178 i_mult_4_mult_30_n42
*1179 i_mult_4_mult_30_n41
*1180 i_mult_4_mult_30_n40
*1181 i_mult_4_mult_30_n39
*1182 i_mult_4_mult_30_n38
*1183 i_mult_4_mult_30_n37
*1184 i_mult_4_mult_30_n36
*1185 i_mult_4_mult_30_n35
*1186 i_mult_4_mult_30_n34
*1187 i_mult_4_mult_30_n33
*1188 i_mult_4_mult_30_n32
*1189 i_mult_4_mult_30_n30
*1190 i_mult_4_mult_30_n29
*1191 i_mult_4_mult_30_n28
*1192 i_mult_4_mult_30_n27
*1193 i_mult_4_mult_30_n26
*1194 i_mult_4_mult_30_n25
*1195 i_mult_4_mult_30_n24
*1196 i_mult_4_mult_30_n23
*1197 i_mult_4_mult_30_n22
*1198 i_mult_4_mult_30_n21
*1199 i_mult_4_mult_30_n20
*1200 i_mult_4_mult_30_n19
*1201 i_mult_4_mult_30_n18
*1202 i_mult_4_mult_30_n17
*1203 i_mult_4_mult_30_n16
*1204 i_mult_4_mult_30_n15
*1205 i_mult_4_mult_30_n14
*1206 i_mult_4_mult_30_n13
*1207 i_mult_4_mult_30_n8
*1208 i_mult_4_mult_30_n7
*1209 i_mult_4_mult_30_n6
*1210 i_mult_4_mult_30_n5
*1211 i_mult_4_mult_30_n4
*1212 i_mult_4_mult_30_n3
*1213 i_mult_4_mult_30_n2
*1214 i_mult_5_MULTIPLIER_OUT_PRODUCT_0_
*1215 i_mult_5_mult_30_n176
*1216 i_mult_5_mult_30_n175
*1217 i_mult_5_mult_30_n174
*1218 i_mult_5_mult_30_n173
*1219 i_mult_5_mult_30_n172
*1220 i_mult_5_mult_30_n171
*1221 i_mult_5_mult_30_n170
*1222 i_mult_5_mult_30_n169
*1223 i_mult_5_mult_30_n168
*1224 i_mult_5_mult_30_n167
*1225 i_mult_5_mult_30_n166
*1226 i_mult_5_mult_30_n165
*1227 i_mult_5_mult_30_n164
*1228 i_mult_5_mult_30_n163
*1229 i_mult_5_mult_30_n162
*1230 i_mult_5_mult_30_n161
*1231 i_mult_5_mult_30_n160
*1232 i_mult_5_mult_30_n159
*1233 i_mult_5_mult_30_n158
*1234 i_mult_5_mult_30_n157
*1235 i_mult_5_mult_30_n156
*1236 i_mult_5_mult_30_n155
*1237 i_mult_5_mult_30_n154
*1238 i_mult_5_mult_30_n153
*1239 i_mult_5_mult_30_n152
*1240 i_mult_5_mult_30_n151
*1241 i_mult_5_mult_30_n104
*1242 i_mult_5_mult_30_n103
*1243 i_mult_5_mult_30_n101
*1244 i_mult_5_mult_30_n100
*1245 i_mult_5_mult_30_n99
*1246 i_mult_5_mult_30_n98
*1247 i_mult_5_mult_30_n96
*1248 i_mult_5_mult_30_n95
*1249 i_mult_5_mult_30_n94
*1250 i_mult_5_mult_30_n93
*1251 i_mult_5_mult_30_n92
*1252 i_mult_5_mult_30_n91
*1253 i_mult_5_mult_30_n90