*SPEF "IEEE 1481-1998"
*DESIGN "filter"
*DATE "Fri Nov  5 22:10:49 2021"
*VENDOR "Cadence Design Systems, Inc."
*PROGRAM "Innovus"
*VERSION "17.11-s080_1"
*DESIGN_FLOW "COUPLING C" "PIN_CAP NONE" "NAME_SCOPE LOCAL"
*DIVIDER /
*DELIMITER :
*BUS_DELIMITER []
*T_UNIT 1 NS
*C_UNIT 1 PF
*R_UNIT 1 OHM
*L_UNIT 1 HENRY

// MMMC spef file for corner 'my_rc'

*NAME_MAP

*1 RST_n
*2 CLK
*3 b0[8]
*4 b0[7]
*5 b0[6]
*6 b0[5]
*7 b0[4]
*8 b0[3]
*9 b0[2]
*10 b0[1]
*11 b0[0]
*12 b1[8]
*13 b1[7]
*14 b1[6]
*15 b1[5]
*16 b1[4]
*17 b1[3]
*18 b1[2]
*19 b1[1]
*20 b1[0]
*21 b2[8]
*22 b2[7]
*23 b2[6]
*24 b2[5]
*25 b2[4]
*26 b2[3]
*27 b2[2]
*28 b2[1]
*29 b2[0]
*30 b3[8]
*31 b3[7]
*32 b3[6]
*33 b3[5]
*34 b3[4]
*35 b3[3]
*36 b3[2]
*37 b3[1]
*38 b3[0]
*39 b4[8]
*40 b4[7]
*41 b4[6]
*42 b4[5]
*43 b4[4]
*44 b4[3]
*45 b4[2]
*46 b4[1]
*47 b4[0]
*48 b5[8]
*49 b5[7]
*50 b5[6]
*51 b5[5]
*52 b5[4]
*53 b5[3]
*54 b5[2]
*55 b5[1]
*56 b5[0]
*57 b6[8]
*58 b6[7]
*59 b6[6]
*60 b6[5]
*61 b6[4]
*62 b6[3]
*63 b6[2]
*64 b6[1]
*65 b6[0]
*66 b7[8]
*67 b7[7]
*68 b7[6]
*69 b7[5]
*70 b7[4]
*71 b7[3]
*72 b7[2]
*73 b7[1]
*74 b7[0]
*75 b8[8]
*76 b8[7]
*77 b8[6]
*78 b8[5]
*79 b8[4]
*80 b8[3]
*81 b8[2]
*82 b8[1]
*83 b8[0]
*84 b9[8]
*85 b9[7]
*86 b9[6]
*87 b9[5]
*88 b9[4]
*89 b9[3]
*90 b9[2]
*91 b9[1]
*92 b9[0]
*93 b10[8]
*94 b10[7]
*95 b10[6]
*96 b10[5]
*97 b10[4]
*98 b10[3]
*99 b10[2]
*100 b10[1]
*101 b10[0]
*102 VIN
*103 DIN[8]
*104 DIN[7]
*105 DIN[6]
*106 DIN[5]
*107 DIN[4]
*108 DIN[3]
*109 DIN[2]
*110 DIN[1]
*111 DIN[0]
*112 VOUT
*113 DOUT[8]
*114 DOUT[7]
*115 DOUT[6]
*116 DOUT[5]
*117 DOUT[4]
*118 DOUT[3]
*119 DOUT[2]
*120 DOUT[1]
*121 DOUT[0]
*122 FE_OFN30_RST_n
*123 FE_OFN29_RST_n
*124 FE_OFN28_RST_n
*125 FE_OFN27_RST_n
*126 FE_OFN26_RST_n
*127 FE_OFN25_i_mult_0_mult_30_n308
*128 FE_OFN24_i_mult_7_mult_30_n311
*129 FE_OFN23_i_mult_7_mult_30_n308
*130 FE_OFN22_i_mult_6_mult_30_n311
*131 FE_OFN21_i_mult_1_mult_30_n308
*132 FE_OFN20_i_mult_0_mult_30_n311
*133 FE_OFN19_i_mult_8_mult_30_n311
*134 FE_OFN18_i_mult_3_mult_30_n311
*135 FE_OFN17_i_mult_6_mult_30_n308
*136 FE_OFN16_i_mult_10_mult_30_n311
*137 FE_OFN15_i_mult_4_mult_30_n311
*138 FE_OFN14_i_mult_4_mult_30_n308
*139 FE_OFN13_i_mult_2_mult_30_n311
*140 FE_OFN12_i_mult_1_mult_30_n311
*141 FE_OFN11_i_mult_9_mult_30_n308
*142 FE_OFN10_i_mult_10_mult_30_n308
*143 FE_OFN9_i_mult_9_mult_30_n311
*144 FE_OFN8_i_mult_8_mult_30_n308
*145 FE_OFN7_i_mult_5_mult_30_n308
*146 FE_OFN6_i_mult_5_mult_30_n311
*147 FE_OFN5_i_mult_2_mult_30_n308
*148 FE_OFN4_i_mult_3_mult_30_n308
*149 FE_OFN3_in_VIN_d
*150 FE_OFN2_in_VIN_d
*151 FE_OFN1_in_VIN_d
*152 FE_OFN0_in_VIN_d
*153 in_VIN_d
*154 delay_line_10__8_
*155 delay_line_10__7_
*156 delay_line_10__6_
*157 delay_line_10__5_
*158 delay_line_10__4_
*159 delay_line_10__3_
*160 delay_line_10__2_
*161 delay_line_10__1_
*162 delay_line_10__0_
*163 delay_line_9__8_
*164 delay_line_9__7_
*165 delay_line_9__6_
*166 delay_line_9__5_
*167 delay_line_9__4_
*168 delay_line_9__3_
*169 delay_line_9__2_
*170 delay_line_9__1_
*171 delay_line_9__0_
*172 delay_line_8__8_
*173 delay_line_8__7_
*174 delay_line_8__6_
*175 delay_line_8__5_
*176 delay_line_8__4_
*177 delay_line_8__3_
*178 delay_line_8__2_
*179 delay_line_8__1_
*180 delay_line_8__0_
*181 delay_line_7__8_
*182 delay_line_7__7_
*183 delay_line_7__6_
*184 delay_line_7__5_
*185 delay_line_7__4_
*186 delay_line_7__3_
*187 delay_line_7__2_
*188 delay_line_7__1_
*189 delay_line_7__0_
*190 delay_line_6__8_
*191 delay_line_6__7_
*192 delay_line_6__6_
*193 delay_line_6__5_
*194 delay_line_6__4_
*195 delay_line_6__3_
*196 delay_line_6__2_
*197 delay_line_6__1_
*198 delay_line_6__0_
*199 delay_line_5__8_
*200 delay_line_5__7_
*201 delay_line_5__6_
*202 delay_line_5__5_
*203 delay_line_5__4_
*204 delay_line_5__3_
*205 delay_line_5__2_
*206 delay_line_5__1_
*207 delay_line_5__0_
*208 delay_line_4__8_
*209 delay_line_4__7_
*210 delay_line_4__6_
*211 delay_line_4__5_
*212 delay_line_4__4_
*213 delay_line_4__3_
*214 delay_line_4__2_
*215 delay_line_4__1_
*216 delay_line_4__0_
*217 delay_line_3__8_
*218 delay_line_3__7_
*219 delay_line_3__6_
*220 delay_line_3__5_
*221 delay_line_3__4_
*222 delay_line_3__3_
*223 delay_line_3__2_
*224 delay_line_3__1_
*225 delay_line_3__0_
*226 delay_line_2__8_
*227 delay_line_2__7_
*228 delay_line_2__6_
*229 delay_line_2__5_
*230 delay_line_2__4_
*231 delay_line_2__3_
*232 delay_line_2__2_
*233 delay_line_2__1_
*234 delay_line_2__0_
*235 delay_line_1__8_
*236 delay_line_1__7_
*237 delay_line_1__6_
*238 delay_line_1__5_
*239 delay_line_1__4_
*240 delay_line_1__3_
*241 delay_line_1__2_
*242 delay_line_1__1_
*243 delay_line_1__0_
*244 VIN_outDL
*245 sum_9__7_
*246 sum_9__6_
*247 sum_9__5_
*248 sum_9__4_
*249 sum_9__3_
*250 sum_9__2_
*251 sum_9__1_
*252 sum_9__0_
*253 sum_8__7_
*254 sum_8__6_
*255 sum_8__5_
*256 sum_8__4_
*257 sum_8__3_
*258 sum_8__2_
*259 sum_8__1_
*260 sum_8__0_
*261 sum_7__7_
*262 sum_7__6_
*263 sum_7__5_
*264 sum_7__4_
*265 sum_7__3_
*266 sum_7__2_
*267 sum_7__1_
*268 sum_7__0_
*269 sum_6__7_
*270 sum_6__6_
*271 sum_6__5_
*272 sum_6__4_
*273 sum_6__3_
*274 sum_6__2_
*275 sum_6__1_
*276 sum_6__0_
*277 sum_5__7_
*278 sum_5__6_
*279 sum_5__5_
*280 sum_5__4_
*281 sum_5__3_
*282 sum_5__2_
*283 sum_5__1_
*284 sum_5__0_
*285 sum_4__7_
*286 sum_4__6_
*287 sum_4__5_
*288 sum_4__4_
*289 sum_4__3_
*290 sum_4__2_
*291 sum_4__1_
*292 sum_4__0_
*293 sum_3__7_
*294 sum_3__6_
*295 sum_3__5_
*296 sum_3__4_
*297 sum_3__3_
*298 sum_3__2_
*299 sum_3__1_
*300 sum_3__0_
*301 sum_2__7_
*302 sum_2__6_
*303 sum_2__5_
*304 sum_2__4_
*305 sum_2__3_
*306 sum_2__2_
*307 sum_2__1_
*308 sum_2__0_
*309 sum_1__7_
*310 sum_1__6_
*311 sum_1__5_
*312 sum_1__4_
*313 sum_1__3_
*314 sum_1__2_
*315 sum_1__1_
*316 sum_1__0_
*317 sum_0__7_
*318 sum_0__5_
*319 sum_0__4_
*320 sum_0__3_
*321 sum_0__2_
*322 sum_0__1_
*323 sum_0__0_
*324 from_multiplier_to_adder_9__7_
*325 from_multiplier_to_adder_9__5_
*326 from_multiplier_to_adder_9__4_
*327 from_multiplier_to_adder_9__3_
*328 from_multiplier_to_adder_9__2_
*329 from_multiplier_to_adder_9__1_
*330 from_multiplier_to_adder_9__0_
*331 from_multiplier_to_adder_8__7_
*332 from_multiplier_to_adder_8__5_
*333 from_multiplier_to_adder_8__4_
*334 from_multiplier_to_adder_8__3_
*335 from_multiplier_to_adder_8__2_
*336 from_multiplier_to_adder_8__1_
*337 from_multiplier_to_adder_8__0_
*338 from_multiplier_to_adder_7__7_
*339 from_multiplier_to_adder_7__5_
*340 from_multiplier_to_adder_7__4_
*341 from_multiplier_to_adder_7__3_
*342 from_multiplier_to_adder_7__2_
*343 from_multiplier_to_adder_7__1_
*344 from_multiplier_to_adder_7__0_
*345 from_multiplier_to_adder_6__7_
*346 from_multiplier_to_adder_6__5_
*347 from_multiplier_to_adder_6__4_
*348 from_multiplier_to_adder_6__3_
*349 from_multiplier_to_adder_6__2_
*350 from_multiplier_to_adder_6__1_
*351 from_multiplier_to_adder_6__0_
*352 from_multiplier_to_adder_5__7_
*353 from_multiplier_to_adder_5__5_
*354 from_multiplier_to_adder_5__4_
*355 from_multiplier_to_adder_5__3_
*356 from_multiplier_to_adder_5__2_
*357 from_multiplier_to_adder_5__1_
*358 from_multiplier_to_adder_5__0_
*359 from_multiplier_to_adder_4__7_
*360 from_multiplier_to_adder_4__5_
*361 from_multiplier_to_adder_4__4_
*362 from_multiplier_to_adder_4__3_
*363 from_multiplier_to_adder_4__2_
*364 from_multiplier_to_adder_4__1_
*365 from_multiplier_to_adder_4__0_
*366 from_multiplier_to_adder_3__7_
*367 from_multiplier_to_adder_3__5_
*368 from_multiplier_to_adder_3__4_
*369 from_multiplier_to_adder_3__3_
*370 from_multiplier_to_adder_3__2_
*371 from_multiplier_to_adder_3__1_
*372 from_multiplier_to_adder_3__0_
*373 from_multiplier_to_adder_2__7_
*374 from_multiplier_to_adder_2__5_
*375 from_multiplier_to_adder_2__4_
*376 from_multiplier_to_adder_2__3_
*377 from_multiplier_to_adder_2__2_
*378 from_multiplier_to_adder_2__1_
*379 from_multiplier_to_adder_2__0_
*380 from_multiplier_to_adder_1__7_
*381 from_multiplier_to_adder_1__5_
*382 from_multiplier_to_adder_1__4_
*383 from_multiplier_to_adder_1__3_
*384 from_multiplier_to_adder_1__2_
*385 from_multiplier_to_adder_1__1_
*386 from_multiplier_to_adder_1__0_
*387 from_multiplier_to_adder_0__7_
*388 from_multiplier_to_adder_0__5_
*389 from_multiplier_to_adder_0__4_
*390 from_multiplier_to_adder_0__3_
*391 from_multiplier_to_adder_0__2_
*392 from_multiplier_to_adder_0__1_
*393 from_multiplier_to_adder_0__0_
*394 evaluated_VOUT
*395 i_regIN_DIN_n18
*396 i_regIN_DIN_n17
*397 i_regIN_DIN_n16
*398 i_regIN_DIN_n15
*399 i_regIN_DIN_n14
*400 i_regIN_DIN_n13
*401 i_regIN_DIN_n12
*402 i_regIN_DIN_n11
*403 i_regIN_DIN_n10
*404 i_ffIN_VIN_n2
*405 i_regIN_coeff_0_n45
*406 i_regIN_coeff_0_n44
*407 i_regIN_coeff_0_n43
*408 i_regIN_coeff_0_n42
*409 i_regIN_coeff_0_n41
*410 i_regIN_coeff_0_n40
*411 i_regIN_coeff_0_n39
*412 i_regIN_coeff_0_n38
*413 i_regIN_coeff_0_n37
*414 i_regIN_coeff_1_n45
*415 i_regIN_coeff_1_n44
*416 i_regIN_coeff_1_n43
*417 i_regIN_coeff_1_n42
*418 i_regIN_coeff_1_n41
*419 i_regIN_coeff_1_n40
*420 i_regIN_coeff_1_n39
*421 i_regIN_coeff_1_n38
*422 i_regIN_coeff_1_n37
*423 i_regIN_coeff_2_n45
*424 i_regIN_coeff_2_n44
*425 i_regIN_coeff_2_n43
*426 i_regIN_coeff_2_n42
*427 i_regIN_coeff_2_n41
*428 i_regIN_coeff_2_n40
*429 i_regIN_coeff_2_n39
*430 i_regIN_coeff_2_n38
*431 i_regIN_coeff_2_n37
*432 i_regIN_coeff_3_n45
*433 i_regIN_coeff_3_n44
*434 i_regIN_coeff_3_n43
*435 i_regIN_coeff_3_n42
*436 i_regIN_coeff_3_n41
*437 i_regIN_coeff_3_n40
*438 i_regIN_coeff_3_n39
*439 i_regIN_coeff_3_n38
*440 i_regIN_coeff_3_n37
*441 i_regIN_coeff_4_n45
*442 i_regIN_coeff_4_n44
*443 i_regIN_coeff_4_n43
*444 i_regIN_coeff_4_n42
*445 i_regIN_coeff_4_n41
*446 i_regIN_coeff_4_n40
*447 i_regIN_coeff_4_n39
*448 i_regIN_coeff_4_n38
*449 i_regIN_coeff_4_n37
*450 i_regIN_coeff_5_n45
*451 i_regIN_coeff_5_n44
*452 i_regIN_coeff_5_n43
*453 i_regIN_coeff_5_n42
*454 i_regIN_coeff_5_n41
*455 i_regIN_coeff_5_n40
*456 i_regIN_coeff_5_n39
*457 i_regIN_coeff_5_n38
*458 i_regIN_coeff_5_n37
*459 i_regIN_coeff_6_n45
*460 i_regIN_coeff_6_n44
*461 i_regIN_coeff_6_n43
*462 i_regIN_coeff_6_n42
*463 i_regIN_coeff_6_n41
*464 i_regIN_coeff_6_n40
*465 i_regIN_coeff_6_n39
*466 i_regIN_coeff_6_n38
*467 i_regIN_coeff_6_n37
*468 i_regIN_coeff_7_n45
*469 i_regIN_coeff_7_n44
*470 i_regIN_coeff_7_n43
*471 i_regIN_coeff_7_n42
*472 i_regIN_coeff_7_n41
*473 i_regIN_coeff_7_n40
*474 i_regIN_coeff_7_n39
*475 i_regIN_coeff_7_n38
*476 i_regIN_coeff_7_n37
*477 i_regIN_coeff_8_n45
*478 i_regIN_coeff_8_n44
*479 i_regIN_coeff_8_n43
*480 i_regIN_coeff_8_n42
*481 i_regIN_coeff_8_n41
*482 i_regIN_coeff_8_n40
*483 i_regIN_coeff_8_n39
*484 i_regIN_coeff_8_n38
*485 i_regIN_coeff_8_n37
*486 i_regIN_coeff_9_n45
*487 i_regIN_coeff_9_n44
*488 i_regIN_coeff_9_n43
*489 i_regIN_coeff_9_n42
*490 i_regIN_coeff_9_n41
*491 i_regIN_coeff_9_n40
*492 i_regIN_coeff_9_n39
*493 i_regIN_coeff_9_n38
*494 i_regIN_coeff_9_n37
*495 i_regIN_coeff_10_n45
*496 i_regIN_coeff_10_n44
*497 i_regIN_coeff_10_n43
*498 i_regIN_coeff_10_n42
*499 i_regIN_coeff_10_n41
*500 i_regIN_coeff_10_n40
*501 i_regIN_coeff_10_n39
*502 i_regIN_coeff_10_n38
*503 i_regIN_coeff_10_n37
*504 i_reg_DL_0_n56
*505 i_reg_DL_0_n55
*506 i_reg_DL_0_n54
*507 i_reg_DL_0_n53
*508 i_reg_DL_0_n52
*509 i_reg_DL_0_n51
*510 i_reg_DL_0_n50
*511 i_reg_DL_0_n49
*512 i_reg_DL_0_n48
*513 i_reg_DL_0_n47
*514 i_reg_DL_0_n46
*515 i_reg_DL_0_n45
*516 i_reg_DL_0_n44
*517 i_reg_DL_0_n43
*518 i_reg_DL_0_n42
*519 i_reg_DL_0_n41
*520 i_reg_DL_0_n40
*521 i_reg_DL_0_n39
*522 i_reg_DL_0_n38
*523 i_reg_DL_0_n37
*524 i_reg_DL_0_n36
*525 i_reg_DL_0_n35
*526 i_reg_DL_0_n34
*527 i_reg_DL_0_n33
*528 i_reg_DL_0_n32
*529 i_reg_DL_0_n31
*530 i_reg_DL_0_n30
*531 i_reg_DL_1_n56
*532 i_reg_DL_1_n55
*533 i_reg_DL_1_n54
*534 i_reg_DL_1_n53
*535 i_reg_DL_1_n52
*536 i_reg_DL_1_n51
*537 i_reg_DL_1_n50
*538 i_reg_DL_1_n49
*539 i_reg_DL_1_n48
*540 i_reg_DL_1_n47
*541 i_reg_DL_1_n46
*542 i_reg_DL_1_n45
*543 i_reg_DL_1_n44
*544 i_reg_DL_1_n43
*545 i_reg_DL_1_n42
*546 i_reg_DL_1_n41
*547 i_reg_DL_1_n40
*548 i_reg_DL_1_n39
*549 i_reg_DL_1_n38
*550 i_reg_DL_1_n37
*551 i_reg_DL_1_n36
*552 i_reg_DL_1_n35
*553 i_reg_DL_1_n34
*554 i_reg_DL_1_n33
*555 i_reg_DL_1_n32
*556 i_reg_DL_1_n31
*557 i_reg_DL_1_n30
*558 i_reg_DL_2_n56
*559 i_reg_DL_2_n55
*560 i_reg_DL_2_n54
*561 i_reg_DL_2_n53
*562 i_reg_DL_2_n52
*563 i_reg_DL_2_n51
*564 i_reg_DL_2_n50
*565 i_reg_DL_2_n49
*566 i_reg_DL_2_n48
*567 i_reg_DL_2_n47
*568 i_reg_DL_2_n46
*569 i_reg_DL_2_n45
*570 i_reg_DL_2_n44
*571 i_reg_DL_2_n43
*572 i_reg_DL_2_n42
*573 i_reg_DL_2_n41
*574 i_reg_DL_2_n40
*575 i_reg_DL_2_n39
*576 i_reg_DL_2_n38
*577 i_reg_DL_2_n37
*578 i_reg_DL_2_n36
*579 i_reg_DL_2_n35
*580 i_reg_DL_2_n34
*581 i_reg_DL_2_n33
*582 i_reg_DL_2_n32
*583 i_reg_DL_2_n31
*584 i_reg_DL_2_n30
*585 i_reg_DL_3_n56
*586 i_reg_DL_3_n55
*587 i_reg_DL_3_n54
*588 i_reg_DL_3_n53
*589 i_reg_DL_3_n52
*590 i_reg_DL_3_n51
*591 i_reg_DL_3_n50
*592 i_reg_DL_3_n49
*593 i_reg_DL_3_n48
*594 i_reg_DL_3_n47
*595 i_reg_DL_3_n46
*596 i_reg_DL_3_n45
*597 i_reg_DL_3_n44
*598 i_reg_DL_3_n43
*599 i_reg_DL_3_n42
*600 i_reg_DL_3_n41
*601 i_reg_DL_3_n40
*602 i_reg_DL_3_n39
*603 i_reg_DL_3_n38
*604 i_reg_DL_3_n37
*605 i_reg_DL_3_n36
*606 i_reg_DL_3_n35
*607 i_reg_DL_3_n34
*608 i_reg_DL_3_n33
*609 i_reg_DL_3_n32
*610 i_reg_DL_3_n31
*611 i_reg_DL_3_n30
*612 i_reg_DL_4_n56
*613 i_reg_DL_4_n55
*614 i_reg_DL_4_n54
*615 i_reg_DL_4_n53
*616 i_reg_DL_4_n52
*617 i_reg_DL_4_n51
*618 i_reg_DL_4_n50
*619 i_reg_DL_4_n49
*620 i_reg_DL_4_n48
*621 i_reg_DL_4_n47
*622 i_reg_DL_4_n46
*623 i_reg_DL_4_n45
*624 i_reg_DL_4_n44
*625 i_reg_DL_4_n43
*626 i_reg_DL_4_n42
*627 i_reg_DL_4_n41
*628 i_reg_DL_4_n40
*629 i_reg_DL_4_n39
*630 i_reg_DL_4_n38
*631 i_reg_DL_4_n37
*632 i_reg_DL_4_n36
*633 i_reg_DL_4_n35
*634 i_reg_DL_4_n34
*635 i_reg_DL_4_n33
*636 i_reg_DL_4_n32
*637 i_reg_DL_4_n31
*638 i_reg_DL_4_n30
*639 i_reg_DL_5_n56
*640 i_reg_DL_5_n55
*641 i_reg_DL_5_n54
*642 i_reg_DL_5_n53
*643 i_reg_DL_5_n52
*644 i_reg_DL_5_n51
*645 i_reg_DL_5_n50
*646 i_reg_DL_5_n49
*647 i_reg_DL_5_n48
*648 i_reg_DL_5_n47
*649 i_reg_DL_5_n46
*650 i_reg_DL_5_n45
*651 i_reg_DL_5_n44
*652 i_reg_DL_5_n43
*653 i_reg_DL_5_n42
*654 i_reg_DL_5_n41
*655 i_reg_DL_5_n40
*656 i_reg_DL_5_n39
*657 i_reg_DL_5_n38
*658 i_reg_DL_5_n37
*659 i_reg_DL_5_n36
*660 i_reg_DL_5_n35
*661 i_reg_DL_5_n34
*662 i_reg_DL_5_n33
*663 i_reg_DL_5_n32
*664 i_reg_DL_5_n31
*665 i_reg_DL_5_n30
*666 i_reg_DL_6_n56
*667 i_reg_DL_6_n55
*668 i_reg_DL_6_n54
*669 i_reg_DL_6_n53
*670 i_reg_DL_6_n52
*671 i_reg_DL_6_n51
*672 i_reg_DL_6_n50
*673 i_reg_DL_6_n49
*674 i_reg_DL_6_n48
*675 i_reg_DL_6_n47
*676 i_reg_DL_6_n46
*677 i_reg_DL_6_n45
*678 i_reg_DL_6_n44
*679 i_reg_DL_6_n43
*680 i_reg_DL_6_n42
*681 i_reg_DL_6_n41
*682 i_reg_DL_6_n40
*683 i_reg_DL_6_n39
*684 i_reg_DL_6_n38
*685 i_reg_DL_6_n37
*686 i_reg_DL_6_n36
*687 i_reg_DL_6_n35
*688 i_reg_DL_6_n34
*689 i_reg_DL_6_n33
*690 i_reg_DL_6_n32
*691 i_reg_DL_6_n31
*692 i_reg_DL_6_n30
*693 i_reg_DL_7_n56
*694 i_reg_DL_7_n55
*695 i_reg_DL_7_n54
*696 i_reg_DL_7_n53
*697 i_reg_DL_7_n52
*698 i_reg_DL_7_n51
*699 i_reg_DL_7_n50
*700 i_reg_DL_7_n49
*701 i_reg_DL_7_n48
*702 i_reg_DL_7_n47
*703 i_reg_DL_7_n46
*704 i_reg_DL_7_n45
*705 i_reg_DL_7_n44
*706 i_reg_DL_7_n43
*707 i_reg_DL_7_n42
*708 i_reg_DL_7_n41
*709 i_reg_DL_7_n40
*710 i_reg_DL_7_n39
*711 i_reg_DL_7_n38
*712 i_reg_DL_7_n37
*713 i_reg_DL_7_n36
*714 i_reg_DL_7_n35
*715 i_reg_DL_7_n34
*716 i_reg_DL_7_n33
*717 i_reg_DL_7_n32
*718 i_reg_DL_7_n31
*719 i_reg_DL_7_n30
*720 i_reg_DL_8_n56
*721 i_reg_DL_8_n55
*722 i_reg_DL_8_n54
*723 i_reg_DL_8_n53
*724 i_reg_DL_8_n52
*725 i_reg_DL_8_n51
*726 i_reg_DL_8_n50
*727 i_reg_DL_8_n49
*728 i_reg_DL_8_n48
*729 i_reg_DL_8_n47
*730 i_reg_DL_8_n46
*731 i_reg_DL_8_n45
*732 i_reg_DL_8_n44
*733 i_reg_DL_8_n43
*734 i_reg_DL_8_n42
*735 i_reg_DL_8_n41
*736 i_reg_DL_8_n40
*737 i_reg_DL_8_n39
*738 i_reg_DL_8_n38
*739 i_reg_DL_8_n37
*740 i_reg_DL_8_n36
*741 i_reg_DL_8_n35
*742 i_reg_DL_8_n34
*743 i_reg_DL_8_n33
*744 i_reg_DL_8_n32
*745 i_reg_DL_8_n31
*746 i_reg_DL_8_n30
*747 i_reg_DL_9_n56
*748 i_reg_DL_9_n55
*749 i_reg_DL_9_n54
*750 i_reg_DL_9_n53
*751 i_reg_DL_9_n52
*752 i_reg_DL_9_n51
*753 i_reg_DL_9_n50
*754 i_reg_DL_9_n49
*755 i_reg_DL_9_n48
*756 i_reg_DL_9_n47
*757 i_reg_DL_9_n46
*758 i_reg_DL_9_n45
*759 i_reg_DL_9_n44
*760 i_reg_DL_9_n43
*761 i_reg_DL_9_n42
*762 i_reg_DL_9_n41
*763 i_reg_DL_9_n40
*764 i_reg_DL_9_n39
*765 i_reg_DL_9_n38
*766 i_reg_DL_9_n37
*767 i_reg_DL_9_n36
*768 i_reg_DL_9_n35
*769 i_reg_DL_9_n34
*770 i_reg_DL_9_n33
*771 i_reg_DL_9_n32
*772 i_reg_DL_9_n31
*773 i_reg_DL_9_n30
*774 i_shift_reg_n23
*775 i_shift_reg_n22
*776 i_shift_reg_n21
*777 i_shift_reg_n20
*778 i_shift_reg_n19
*779 i_shift_reg_n18
*780 i_shift_reg_n17
*781 i_shift_reg_n16
*782 i_shift_reg_n15
*783 i_shift_reg_n14
*784 i_shift_reg_n13
*785 i_shift_reg_n12
*786 i_shift_reg_n11
*787 i_shift_reg_n10
*788 i_shift_reg_n9
*789 i_shift_reg_n8
*790 i_shift_reg_n7
*791 i_shift_reg_n6
*792 i_shift_reg_n5
*793 i_shift_reg_n4
*794 i_shift_reg_n3
*795 i_shift_reg_n2
*796 i_mult_0_MULTIPLIER_OUT_PRODUCT_0_
*797 i_mult_0_mult_30_n375
*798 i_mult_0_mult_30_n374
*799 i_mult_0_mult_30_n373
*800 i_mult_0_mult_30_n372
*801 i_mult_0_mult_30_n371
*802 i_mult_0_mult_30_n370
*803 i_mult_0_mult_30_n369
*804 i_mult_0_mult_30_n368
*805 i_mult_0_mult_30_n367
*806 i_mult_0_mult_30_n366
*807 i_mult_0_mult_30_n365
*808 i_mult_0_mult_30_n364
*809 i_mult_0_mult_30_n363
*810 i_mult_0_mult_30_n362
*811 i_mult_0_mult_30_n361
*812 i_mult_0_mult_30_n360
*813 i_mult_0_mult_30_n359
*814 i_mult_0_mult_30_n358
*815 i_mult_0_mult_30_n357
*816 i_mult_0_mult_30_n356
*817 i_mult_0_mult_30_n355
*818 i_mult_0_mult_30_n354
*819 i_mult_0_mult_30_n353
*820 i_mult_0_mult_30_n352
*821 i_mult_0_mult_30_n351
*822 i_mult_0_mult_30_n350
*823 i_mult_0_mult_30_n349
*824 i_mult_0_mult_30_n348
*825 i_mult_0_mult_30_n347
*826 i_mult_0_mult_30_n346
*827 i_mult_0_mult_30_n345
*828 i_mult_0_mult_30_n344
*829 i_mult_0_mult_30_n343
*830 i_mult_0_mult_30_n342
*831 i_mult_0_mult_30_n341
*832 i_mult_0_mult_30_n340
*833 i_mult_0_mult_30_n339
*834 i_mult_0_mult_30_n338
*835 i_mult_0_mult_30_n337
*836 i_mult_0_mult_30_n336
*837 i_mult_0_mult_30_n335
*838 i_mult_0_mult_30_n334
*839 i_mult_0_mult_30_n333
*840 i_mult_0_mult_30_n332
*841 i_mult_0_mult_30_n331
*842 i_mult_0_mult_30_n330
*843 i_mult_0_mult_30_n329
*844 i_mult_0_mult_30_n328
*845 i_mult_0_mult_30_n327
*846 i_mult_0_mult_30_n326
*847 i_mult_0_mult_30_n325
*848 i_mult_0_mult_30_n324
*849 i_mult_0_mult_30_n323
*850 i_mult_0_mult_30_n322
*851 i_mult_0_mult_30_n321
*852 i_mult_0_mult_30_n320
*853 i_mult_0_mult_30_n319
*854 i_mult_0_mult_30_n318
*855 i_mult_0_mult_30_n317
*856 i_mult_0_mult_30_n316
*857 i_mult_0_mult_30_n315
*858 i_mult_0_mult_30_n314
*859 i_mult_0_mult_30_n313
*860 i_mult_0_mult_30_n312
*861 i_mult_0_mult_30_n311
*862 i_mult_0_mult_30_n310
*863 i_mult_0_mult_30_n309
*864 i_mult_0_mult_30_n308
*865 i_mult_0_mult_30_n307
*866 i_mult_0_mult_30_n306
*867 i_mult_0_mult_30_n305
*868 i_mult_0_mult_30_n304
*869 i_mult_0_mult_30_n303
*870 i_mult_0_mult_30_n302
*871 i_mult_0_mult_30_n301
*872 i_mult_0_mult_30_n300
*873 i_mult_0_mult_30_n299
*874 i_mult_0_mult_30_n298
*875 i_mult_0_mult_30_n297
*876 i_mult_0_mult_30_n296
*877 i_mult_0_mult_30_n295
*878 i_mult_0_mult_30_n294
*879 i_mult_0_mult_30_n293
*880 i_mult_0_mult_30_n292
*881 i_mult_0_mult_30_n291
*882 i_mult_0_mult_30_n290
*883 i_mult_0_mult_30_n289
*884 i_mult_0_mult_30_n288
*885 i_mult_0_mult_30_n287
*886 i_mult_0_mult_30_n286
*887 i_mult_0_mult_30_n285
*888 i_mult_0_mult_30_n284
*889 i_mult_0_mult_30_n283
*890 i_mult_0_mult_30_n282
*891 i_mult_0_mult_30_n281
*892 i_mult_0_mult_30_n280
*893 i_mult_0_mult_30_n279
*894 i_mult_0_mult_30_n278
*895 i_mult_0_mult_30_n277
*896 i_mult_0_mult_30_n141
*897 i_mult_0_mult_30_n140
*898 i_mult_0_mult_30_n139
*899 i_mult_0_mult_30_n138
*900 i_mult_0_mult_30_n137
*901 i_mult_0_mult_30_n136
*902 i_mult_0_mult_30_n133
*903 i_mult_0_mult_30_n132
*904 i_mult_0_mult_30_n131
*905 i_mult_0_mult_30_n130
*906 i_mult_0_mult_30_n129
*907 i_mult_0_mult_30_n128
*908 i_mult_0_mult_30_n127
*909 i_mult_0_mult_30_n125
*910 i_mult_0_mult_30_n124
*911 i_mult_0_mult_30_n123
*912 i_mult_0_mult_30_n122
*913 i_mult_0_mult_30_n121
*914 i_mult_0_mult_30_n120
*915 i_mult_0_mult_30_n119
*916 i_mult_0_mult_30_n118
*917 i_mult_0_mult_30_n116
*918 i_mult_0_mult_30_n115
*919 i_mult_0_mult_30_n114
*920 i_mult_0_mult_30_n112
*921 i_mult_0_mult_30_n111
*922 i_mult_0_mult_30_n110
*923 i_mult_0_mult_30_n109
*924 i_mult_0_mult_30_n107
*925 i_mult_0_mult_30_n105
*926 i_mult_0_mult_30_n104
*927 i_mult_0_mult_30_n103
*928 i_mult_0_mult_30_n102
*929 i_mult_0_mult_30_n101
*930 i_mult_0_mult_30_n100
*931 i_mult_0_mult_30_n96
*932 i_mult_0_mult_30_n95
*933 i_mult_0_mult_30_n94
*934 i_mult_0_mult_30_n79
*935 i_mult_0_mult_30_n78
*936 i_mult_0_mult_30_n77
*937 i_mult_0_mult_30_n76
*938 i_mult_0_mult_30_n75
*939 i_mult_0_mult_30_n74
*940 i_mult_0_mult_30_n73
*941 i_mult_0_mult_30_n72
*942 i_mult_0_mult_30_n71
*943 i_mult_0_mult_30_n70
*944 i_mult_0_mult_30_n69
*945 i_mult_0_mult_30_n68
*946 i_mult_0_mult_30_n67
*947 i_mult_0_mult_30_n66
*948 i_mult_0_mult_30_n65
*949 i_mult_0_mult_30_n64
*950 i_mult_0_mult_30_n63
*951 i_mult_0_mult_30_n62
*952 i_mult_0_mult_30_n61
*953 i_mult_0_mult_30_n60
*954 i_mult_0_mult_30_n59
*955 i_mult_0_mult_30_n58
*956 i_mult_0_mult_30_n57
*957 i_mult_0_mult_30_n56
*958 i_mult_0_mult_30_n55
*959 i_mult_0_mult_30_n54
*960 i_mult_0_mult_30_n53
*961 i_mult_0_mult_30_n52
*962 i_mult_0_mult_30_n51
*963 i_mult_0_mult_30_n50
*964 i_mult_0_mult_30_n49
*965 i_mult_0_mult_30_n48
*966 i_mult_0_mult_30_n46
*967 i_mult_0_mult_30_n45
*968 i_mult_0_mult_30_n44
*969 i_mult_0_mult_30_n43
*970 i_mult_0_mult_30_n42
*971 i_mult_0_mult_30_n41
*972 i_mult_0_mult_30_n40
*973 i_mult_0_mult_30_n39
*974 i_mult_0_mult_30_n38
*975 i_mult_0_mult_30_n37
*976 i_mult_0_mult_30_n36
*977 i_mult_0_mult_30_n35
*978 i_mult_0_mult_30_n34
*979 i_mult_0_mult_30_n32
*980 i_mult_0_mult_30_n31
*981 i_mult_0_mult_30_n30
*982 i_mult_0_mult_30_n29
*983 i_mult_0_mult_30_n28
*984 i_mult_0_mult_30_n27
*985 i_mult_0_mult_30_n26
*986 i_mult_0_mult_30_n25
*987 i_mult_0_mult_30_n24
*988 i_mult_0_mult_30_n22
*989 i_mult_0_mult_30_n21
*990 i_mult_0_mult_30_n20
*991 i_mult_0_mult_30_n19
*992 i_mult_0_mult_30_n18
*993 i_mult_0_mult_30_n7
*994 i_mult_0_mult_30_n6
*995 i_mult_0_mult_30_n5
*996 i_mult_0_mult_30_n4
*997 i_mult_0_mult_30_n3
*998 i_mult_0_mult_30_n2
*999 i_mult_1_MULTIPLIER_OUT_PRODUCT_0_
*1000 i_mult_1_mult_30_n375
*1001 i_mult_1_mult_30_n374
*1002 i_mult_1_mult_30_n373
*1003 i_mult_1_mult_30_n372
*1004 i_mult_1_mult_30_n371
*1005 i_mult_1_mult_30_n370
*1006 i_mult_1_mult_30_n369
*1007 i_mult_1_mult_30_n368
*1008 i_mult_1_mult_30_n367
*1009 i_mult_1_mult_30_n366
*1010 i_mult_1_mult_30_n365
*1011 i_mult_1_mult_30_n364
*1012 i_mult_1_mult_30_n363
*1013 i_mult_1_mult_30_n362
*1014 i_mult_1_mult_30_n361
*1015 i_mult_1_mult_30_n360
*1016 i_mult_1_mult_30_n359
*1017 i_mult_1_mult_30_n358
*1018 i_mult_1_mult_30_n357
*1019 i_mult_1_mult_30_n356
*1020 i_mult_1_mult_30_n355
*1021 i_mult_1_mult_30_n354
*1022 i_mult_1_mult_30_n353
*1023 i_mult_1_mult_30_n352
*1024 i_mult_1_mult_30_n351
*1025 i_mult_1_mult_30_n350
*1026 i_mult_1_mult_30_n349
*1027 i_mult_1_mult_30_n348
*1028 i_mult_1_mult_30_n347
*1029 i_mult_1_mult_30_n346
*1030 i_mult_1_mult_30_n345
*1031 i_mult_1_mult_30_n344
*1032 i_mult_1_mult_30_n343
*1033 i_mult_1_mult_30_n342
*1034 i_mult_1_mult_30_n341
*1035 i_mult_1_mult_30_n340
*1036 i_mult_1_mult_30_n339
*1037 i_mult_1_mult_30_n338
*1038 i_mult_1_mult_30_n337
*1039 i_mult_1_mult_30_n336
*1040 i_mult_1_mult_30_n335
*1041 i_mult_1_mult_30_n334
*1042 i_mult_1_mult_30_n333
*1043 i_mult_1_mult_30_n332
*1044 i_mult_1_mult_30_n331
*1045 i_mult_1_mult_30_n330
*1046 i_mult_1_mult_30_n329
*1047 i_mult_1_mult_30_n328
*1048 i_mult_1_mult_30_n327
*1049 i_mult_1_mult_30_n326
*1050 i_mult_1_mult_30_n325
*1051 i_mult_1_mult_30_n324
*1052 i_mult_1_mult_30_n323
*1053 i_mult_1_mult_30_n322
*1054 i_mult_1_mult_30_n321
*1055 i_mult_1_mult_30_n320
*1056 i_mult_1_mult_30_n319
*1057 i_mult_1_mult_30_n318
*1058 i_mult_1_mult_30_n317
*1059 i_mult_1_mult_30_n316
*1060 i_mult_1_mult_30_n315
*1061 i_mult_1_mult_30_n314
*1062 i_mult_1_mult_30_n313
*1063 i_mult_1_mult_30_n312
*1064 i_mult_1_mult_30_n311
*1065 i_mult_1_mult_30_n310
*1066 i_mult_1_mult_30_n309
*1067 i_mult_1_mult_30_n308
*1068 i_mult_1_mult_30_n307
*1069 i_mult_1_mult_30_n306
*1070 i_mult_1_mult_30_n305
*1071 i_mult_1_mult_30_n304
*1072 i_mult_1_mult_30_n303
*1073 i_mult_1_mult_30_n302
*1074 i_mult_1_mult_30_n301
*1075 i_mult_1_mult_30_n300
*1076 i_mult_1_mult_30_n299
*1077 i_mult_1_mult_30_n298
*1078 i_mult_1_mult_30_n297
*1079 i_mult_1_mult_30_n296
*1080 i_mult_1_mult_30_n295
*1081 i_mult_1_mult_30_n294
*1082 i_mult_1_mult_30_n293
*1083 i_mult_1_mult_30_n292
*1084 i_mult_1_mult_30_n291
*1085 i_mult_1_mult_30_n290
*1086 i_mult_1_mult_30_n289
*1087 i_mult_1_mult_30_n288
*1088 i_mult_1_mult_30_n287
*1089 i_mult_1_mult_30_n286
*1090 i_mult_1_mult_30_n285
*1091 i_mult_1_mult_30_n284
*1092 i_mult_1_mult_30_n283
*1093 i_mult_1_mult_30_n282
*1094 i_mult_1_mult_30_n281
*1095 i_mult_1_mult_30_n280
*1096 i_mult_1_mult_30_n279
*1097 i_mult_1_mult_30_n278
*1098 i_mult_1_mult_30_n277
*1099 i_mult_1_mult_30_n141
*1100 i_mult_1_mult_30_n140
*1101 i_mult_1_mult_30_n139
*1102 i_mult_1_mult_30_n138
*1103 i_mult_1_mult_30_n137
*1104 i_mult_1_mult_30_n136
*1105 i_mult_1_mult_30_n133
*1106 i_mult_1_mult_30_n132
*1107 i_mult_1_mult_30_n131
*1108 i_mult_1_mult_30_n130
*1109 i_mult_1_mult_30_n129
*1110 i_mult_1_mult_30_n128
*1111 i_mult_1_mult_30_n127
*1112 i_mult_1_mult_30_n125
*1113 i_mult_1_mult_30_n124
*1114 i_mult_1_mult_30_n123
*1115 i_mult_1_mult_30_n122
*1116 i_mult_1_mult_30_n121
*1117 i_mult_1_mult_30_n120
*1118 i_mult_1_mult_30_n119
*1119 i_mult_1_mult_30_n118
*1120 i_mult_1_mult_30_n116
*1121 i_mult_1_mult_30_n115
*1122 i_mult_1_mult_30_n114
*1123 i_mult_1_mult_30_n112
*1124 i_mult_1_mult_30_n111
*1125 i_mult_1_mult_30_n110
*1126 i_mult_1_mult_30_n109
*1127 i_mult_1_mult_30_n107
*1128 i_mult_1_mult_30_n105
*1129 i_mult_1_mult_30_n104
*1130 i_mult_1_mult_30_n103
*1131 i_mult_1_mult_30_n102
*1132 i_mult_1_mult_30_n101
*1133 i_mult_1_mult_30_n100
*1134 i_mult_1_mult_30_n96
*1135 i_mult_1_mult_30_n95
*1136 i_mult_1_mult_30_n94
*1137 i_mult_1_mult_30_n79
*1138 i_mult_1_mult_30_n78
*1139 i_mult_1_mult_30_n77
*1140 i_mult_1_mult_30_n76
*1141 i_mult_1_mult_30_n75
*1142 i_mult_1_mult_30_n74
*1143 i_mult_1_mult_30_n73
*1144 i_mult_1_mult_30_n72
*1145 i_mult_1_mult_30_n71
*1146 i_mult_1_mult_30_n70
*1147 i_mult_1_mult_30_n69
*1148 i_mult_1_mult_30_n68
*1149 i_mult_1_mult_30_n67
*1150 i_mult_1_mult_30_n66
*1151 i_mult_1_mult_30_n65
*1152 i_mult_1_mult_30_n64
*1153 i_mult_1_mult_30_n63
*1154 i_mult_1_mult_30_n62
*1155 i_mult_1_mult_30_n61
*1156 i_mult_1_mult_30_n60
*1157 i_mult_1_mult_30_n59
*1158 i_mult_1_mult_30_n58
*1159 i_mult_1_mult_30_n57
*1160 i_mult_1_mult_30_n56
*1161 i_mult_1_mult_30_n55
*1162 i_mult_1_mult_30_n54
*1163 i_mult_1_mult_30_n53
*1164 i_mult_1_mult_30_n52
*1165 i_mult_1_mult_30_n51
*1166 i_mult_1_mult_30_n50
*1167 i_mult_1_mult_30_n49
*1168 i_mult_1_mult_30_n48
*1169 i_mult_1_mult_30_n46
*1170 i_mult_1_mult_30_n45
*1171 i_mult_1_mult_30_n44
*1172 i_mult_1_mult_30_n43
*1173 i_mult_1_mult_30_n42
*1174 i_mult_1_mult_30_n41
*1175 i_mult_1_mult_30_n40
*1176 i_mult_1_mult_30_n39
*1177 i_mult_1_mult_30_n38
*1178 i_mult_1_mult_30_n37
*1179 i_mult_1_mult_30_n36
*1180 i_mult_1_mult_30_n35
*1181 i_mult_1_mult_30_n34
*1182 i_mult_1_mult_30_n32
*1183 i_mult_1_mult_30_n31
*1184 i_mult_1_mult_30_n30
*1185 i_mult_1_mult_30_n29
*1186 i_mult_1_mult_30_n28
*1187 i_mult_1_mult_30_n27
*1188 i_mult_1_mult_30_n26
*1189 i_mult_1_mult_30_n25
*1190 i_mult_1_mult_30_n24
*1191 i_mult_1_mult_30_n22
*1192 i_mult_1_mult_30_n21
*1193 i_mult_1_mult_30_n20
*1194 i_mult_1_mult_30_n19
*1195 i_mult_1_mult_30_n18
*1196 i_mult_1_mult_30_n7
*1197 i_mult_1_mult_30_n6
*1198 i_mult_1_mult_30_n5
*1199 i_mult_1_mult_30_n4
*1200 i_mult_1_mult_30_n3
*1201 i_mult_1_mult_30_n2
*1202 i_mult_2_MULTIPLIER_OUT_PRODUCT_0_
*1203 i_mult_2_mult_30_n375
*1204 i_mult_2_mult_30_n374
*1205 i_mult_2_mult_30_n373
*1206 i_mult_2_mult_30_n372
*1207 i_mult_2_mult_30_n371
*1208 i_mult_2_mult_30_n370
*1209 i_mult_2_mult_30_n369
*1210 i_mult_2_mult_30_n368
*1211 i_mult_2_mult_30_n367
*1212 i_mult_2_mult_30_n366
*1213 i_mult_2_mult_30_n365
*1214 i_mult_2_mult_30_n364
*1215 i_mult_2_mult_30_n363
*1216 i_mult_2_mult_30_n362
*1217 i_mult_2_mult_30_n361
*1218 i_mult_2_mult_30_n360
*1219 i_mult_2_mult_30_n359
*1220 i_mult_2_mult_30_n358
*1221 i_mult_2_mult_30_n357
*1222 i_mult_2_mult_30_n356
*1223 i_mult_2_mult_30_n355
*1224 i_mult_2_mult_30_n354
*1225 i_mult_2_mult_30_n353
*1226 i_mult_2_mult_30_n352
*1227 i_mult_2_mult_30_n351
*1228 i_mult_2_mult_30_n350
*1229 i_mult_2_mult_30_n349
*1230 i_mult_2_mult_30_n348
*1231 i_mult_2_mult_30_n347
*1232 i_mult_2_mult_30_n346
*1233 i_mult_2_mult_30_n345
*1234 i_mult_2_mult_30_n344
*1235 i_mult_2_mult_30_n343
*1236 i_mult_2_mult_30_n342
*1237 i_mult_2_mult_30_n341
*1238 i_mult_2_mult_30_n340
*1239 i_mult_2_mult_30_n339
*1240 i_mult_2_mult_30_n338
*1241 i_mult_2_mult_30_n337
*1242 i_mult_2_mult_30_n336
*1243 i_mult_2_mult_30_n335
*1244 i_mult_2_mult_30_n334
*1245 i_mult_2_mult_30_n333
*1246 i_mult_2_mult_30_n332
*1247 i_mult_2_mult_30_n331
*1248 i_mult_2_mult_30_n330
*1249 i_mult_2_mult_30_n329
*1250 i_mult_2_mult_30_n328
*1251 i_mult_2_mult_30_n327
*1252 i_mult_2_mult_30_n326
*1253 i_mult_2_mult_30_n325
*1254 i_mult_2_mult_30_n324
*1255 i_mult_2_mult_30_n323
*1256 i_mult_2_mult_30_n322
*1257 i_mult_2_mult_30_n321
*1258 i_mult_2_mult_30_n320
*1259 i_mult_2_mult_30_n319
*1260 i_mult_2_mult_30_n318
*1261 i_mult_2_mult_30_n317
*1262 i_mult_2_mult_30_n316
*1263 i_mult_2_mult_30_n315
*1264 i_mult_2_mult_30_n314
*1265 i_mult_2_mult_30_n313
*1266 i_mult_2_mult_30_n312
*1267 i_mult_2_mult_30_n311
*1268 i_mult_2_mult_30_n310
*1269 i_mult_2_mult_30_n309
*1270 i_mult_2_mult_30_n308
*1271 i_mult_2_mult_30_n307
*1272 i_mult_2_mult_30_n306
*1273 i_mult_2_mult_30_n305
*1274 i_mult_2_mult_30_n304