*SPEF "IEEE 1481-1998"
*DESIGN "filter"
*DATE "Sat Nov  6 19:42:28 2021"
*VENDOR "Cadence Design Systems, Inc."
*PROGRAM "Innovus"
*VERSION "17.11-s080_1"
*DESIGN_FLOW "PIN_CAP NONE" "NAME_SCOPE LOCAL"
*DIVIDER /
*DELIMITER :
*BUS_DELIMITER []
*T_UNIT 1 NS
*C_UNIT 1 PF
*R_UNIT 1 OHM
*L_UNIT 1 HENRY

// MMMC spef file for corner 'my_rc'

*NAME_MAP

*1 FE_OFN29_RST_n
*2 FE_OFN28_RST_n
*3 FE_OFN27_RST_n
*4 FE_OFN26_RST_n
*5 FE_OFN25_RST_n
*6 FE_OFN24_i_mult_0_mult_30_n308
*7 FE_OFN23_i_mult_7_mult_30_n311
*8 FE_OFN22_i_mult_3_mult_30_n311
*9 FE_OFN21_i_mult_8_mult_30_n311
*10 FE_OFN20_i_mult_6_mult_30_n311
*11 FE_OFN19_i_mult_9_mult_30_n311
*12 FE_OFN18_i_mult_0_mult_30_n311
*13 FE_OFN17_i_mult_1_mult_30_n308
*14 FE_OFN16_i_mult_9_mult_30_n308
*15 FE_OFN15_i_mult_2_mult_30_n311
*16 FE_OFN14_i_mult_1_mult_30_n311
*17 FE_OFN13_i_mult_10_mult_30_n311
*18 FE_OFN12_i_mult_4_mult_30_n311
*19 FE_OFN11_i_mult_4_mult_30_n308
*20 FE_OFN10_i_mult_10_mult_30_n308
*21 FE_OFN9_i_mult_6_mult_30_n308
*22 FE_OFN8_i_mult_7_mult_30_n308
*23 FE_OFN7_i_mult_3_mult_30_n308
*24 FE_OFN6_i_mult_5_mult_30_n308
*25 FE_OFN5_i_mult_8_mult_30_n308
*26 FE_OFN4_i_mult_5_mult_30_n311
*27 FE_OFN3_i_mult_2_mult_30_n308
*28 FE_OFN2_in_VIN_d
*29 FE_OFN1_in_VIN_d
*30 FE_OFN0_in_VIN_d
*31 b0[8]
*32 b0[7]
*33 b0[6]
*34 b0[5]
*35 b0[4]
*36 b0[3]
*37 b0[2]
*38 b0[1]
*39 b0[0]
*40 b1[8]
*41 b1[7]
*42 b1[6]
*43 b1[5]
*44 b1[4]
*45 b1[3]
*46 b1[2]
*47 b1[1]
*48 b1[0]
*49 b2[8]
*50 b2[7]
*51 b2[6]
*52 b2[5]
*53 b2[4]
*54 b2[3]
*55 b2[2]
*56 b2[1]
*57 b2[0]
*58 b3[8]
*59 b3[7]
*60 b3[6]
*61 b3[5]
*62 b3[4]
*63 b3[3]
*64 b3[2]
*65 b3[1]
*66 b3[0]
*67 b4[8]
*68 b4[7]
*69 b4[6]
*70 b4[5]
*71 b4[4]
*72 b4[3]
*73 b4[2]
*74 b4[1]
*75 b4[0]
*76 b5[8]
*77 b5[7]
*78 b5[6]
*79 b5[5]
*80 b5[4]
*81 b5[3]
*82 b5[2]
*83 b5[1]
*84 b5[0]
*85 b6[8]
*86 b6[7]
*87 b6[6]
*88 b6[5]
*89 b6[4]
*90 b6[3]
*91 b6[2]
*92 b6[1]
*93 b6[0]
*94 b7[8]
*95 b7[7]
*96 b7[6]
*97 b7[5]
*98 b7[4]
*99 b7[3]
*100 b7[2]
*101 b7[1]
*102 b7[0]
*103 b8[8]
*104 b8[7]
*105 b8[6]
*106 b8[5]
*107 b8[4]
*108 b8[3]
*109 b8[2]
*110 b8[1]
*111 b8[0]
*112 b9[8]
*113 b9[7]
*114 b9[6]
*115 b9[5]
*116 b9[4]
*117 b9[3]
*118 b9[2]
*119 b9[1]
*120 b9[0]
*121 b10[8]
*122 b10[7]
*123 b10[6]
*124 b10[5]
*125 b10[4]
*126 b10[3]
*127 b10[2]
*128 b10[1]
*129 b10[0]
*130 DIN[8]
*131 DIN[7]
*132 DIN[6]
*133 DIN[5]
*134 DIN[4]
*135 DIN[3]
*136 DIN[2]
*137 DIN[1]
*138 DIN[0]
*139 DOUT[8]
*140 DOUT[7]
*141 DOUT[6]
*142 DOUT[5]
*143 DOUT[4]
*144 DOUT[3]
*145 DOUT[2]
*146 DOUT[1]
*147 DOUT[0]
*148 RST_n
*149 CLK
*150 VIN
*151 VOUT
*152 in_VIN_d
*153 delay_line_10__8_
*154 delay_line_10__7_
*155 delay_line_10__6_
*156 delay_line_10__5_
*157 delay_line_10__4_
*158 delay_line_10__3_
*159 delay_line_10__2_
*160 delay_line_10__1_
*161 delay_line_10__0_
*162 delay_line_9__8_
*163 delay_line_9__7_
*164 delay_line_9__6_
*165 delay_line_9__5_
*166 delay_line_9__4_
*167 delay_line_9__3_
*168 delay_line_9__2_
*169 delay_line_9__1_
*170 delay_line_9__0_
*171 delay_line_8__8_
*172 delay_line_8__7_
*173 delay_line_8__6_
*174 delay_line_8__5_
*175 delay_line_8__4_
*176 delay_line_8__3_
*177 delay_line_8__2_
*178 delay_line_8__1_
*179 delay_line_8__0_
*180 delay_line_7__8_
*181 delay_line_7__7_
*182 delay_line_7__6_
*183 delay_line_7__5_
*184 delay_line_7__4_
*185 delay_line_7__3_
*186 delay_line_7__2_
*187 delay_line_7__1_
*188 delay_line_7__0_
*189 delay_line_6__8_
*190 delay_line_6__7_
*191 delay_line_6__6_
*192 delay_line_6__5_
*193 delay_line_6__4_
*194 delay_line_6__3_
*195 delay_line_6__2_
*196 delay_line_6__1_
*197 delay_line_6__0_
*198 delay_line_5__8_
*199 delay_line_5__7_
*200 delay_line_5__6_
*201 delay_line_5__5_
*202 delay_line_5__4_
*203 delay_line_5__3_
*204 delay_line_5__2_
*205 delay_line_5__1_
*206 delay_line_5__0_
*207 delay_line_4__8_
*208 delay_line_4__7_
*209 delay_line_4__6_
*210 delay_line_4__5_
*211 delay_line_4__4_
*212 delay_line_4__3_
*213 delay_line_4__2_
*214 delay_line_4__1_
*215 delay_line_4__0_
*216 delay_line_3__8_
*217 delay_line_3__7_
*218 delay_line_3__6_
*219 delay_line_3__5_
*220 delay_line_3__4_
*221 delay_line_3__3_
*222 delay_line_3__2_
*223 delay_line_3__1_
*224 delay_line_3__0_
*225 delay_line_2__8_
*226 delay_line_2__7_
*227 delay_line_2__6_
*228 delay_line_2__5_
*229 delay_line_2__4_
*230 delay_line_2__3_
*231 delay_line_2__2_
*232 delay_line_2__1_
*233 delay_line_2__0_
*234 delay_line_1__8_
*235 delay_line_1__7_
*236 delay_line_1__6_
*237 delay_line_1__5_
*238 delay_line_1__4_
*239 delay_line_1__3_
*240 delay_line_1__2_
*241 delay_line_1__1_
*242 delay_line_1__0_
*243 VIN_outDL
*244 sum_9__7_
*245 sum_9__6_
*246 sum_9__5_
*247 sum_9__4_
*248 sum_9__3_
*249 sum_9__2_
*250 sum_9__1_
*251 sum_9__0_
*252 sum_8__7_
*253 sum_8__6_
*254 sum_8__5_
*255 sum_8__4_
*256 sum_8__3_
*257 sum_8__2_
*258 sum_8__1_
*259 sum_8__0_
*260 sum_7__7_
*261 sum_7__6_
*262 sum_7__5_
*263 sum_7__4_
*264 sum_7__3_
*265 sum_7__2_
*266 sum_7__1_
*267 sum_7__0_
*268 sum_6__7_
*269 sum_6__6_
*270 sum_6__5_
*271 sum_6__4_
*272 sum_6__3_
*273 sum_6__2_
*274 sum_6__1_
*275 sum_6__0_
*276 sum_5__7_
*277 sum_5__6_
*278 sum_5__5_
*279 sum_5__4_
*280 sum_5__3_
*281 sum_5__2_
*282 sum_5__1_
*283 sum_5__0_
*284 sum_4__7_
*285 sum_4__6_
*286 sum_4__5_
*287 sum_4__4_
*288 sum_4__3_
*289 sum_4__2_
*290 sum_4__1_
*291 sum_4__0_
*292 sum_3__7_
*293 sum_3__6_
*294 sum_3__5_
*295 sum_3__4_
*296 sum_3__3_
*297 sum_3__2_
*298 sum_3__1_
*299 sum_3__0_
*300 sum_2__7_
*301 sum_2__6_
*302 sum_2__5_
*303 sum_2__4_
*304 sum_2__3_
*305 sum_2__2_
*306 sum_2__1_
*307 sum_2__0_
*308 sum_1__7_
*309 sum_1__6_
*310 sum_1__5_
*311 sum_1__4_
*312 sum_1__3_
*313 sum_1__2_
*314 sum_1__1_
*315 sum_1__0_
*316 sum_0__7_
*317 sum_0__5_
*318 sum_0__4_
*319 sum_0__3_
*320 sum_0__2_
*321 sum_0__1_
*322 sum_0__0_
*323 from_multiplier_to_adder_9__7_
*324 from_multiplier_to_adder_9__5_
*325 from_multiplier_to_adder_9__4_
*326 from_multiplier_to_adder_9__3_
*327 from_multiplier_to_adder_9__2_
*328 from_multiplier_to_adder_9__1_
*329 from_multiplier_to_adder_9__0_
*330 from_multiplier_to_adder_8__7_
*331 from_multiplier_to_adder_8__5_
*332 from_multiplier_to_adder_8__4_
*333 from_multiplier_to_adder_8__3_
*334 from_multiplier_to_adder_8__2_
*335 from_multiplier_to_adder_8__1_
*336 from_multiplier_to_adder_8__0_
*337 from_multiplier_to_adder_7__7_
*338 from_multiplier_to_adder_7__5_
*339 from_multiplier_to_adder_7__4_
*340 from_multiplier_to_adder_7__3_
*341 from_multiplier_to_adder_7__2_
*342 from_multiplier_to_adder_7__1_
*343 from_multiplier_to_adder_7__0_
*344 from_multiplier_to_adder_6__7_
*345 from_multiplier_to_adder_6__5_
*346 from_multiplier_to_adder_6__4_
*347 from_multiplier_to_adder_6__3_
*348 from_multiplier_to_adder_6__2_
*349 from_multiplier_to_adder_6__1_
*350 from_multiplier_to_adder_6__0_
*351 from_multiplier_to_adder_5__7_
*352 from_multiplier_to_adder_5__5_
*353 from_multiplier_to_adder_5__4_
*354 from_multiplier_to_adder_5__3_
*355 from_multiplier_to_adder_5__2_
*356 from_multiplier_to_adder_5__1_
*357 from_multiplier_to_adder_5__0_
*358 from_multiplier_to_adder_4__7_
*359 from_multiplier_to_adder_4__5_
*360 from_multiplier_to_adder_4__4_
*361 from_multiplier_to_adder_4__3_
*362 from_multiplier_to_adder_4__2_
*363 from_multiplier_to_adder_4__1_
*364 from_multiplier_to_adder_4__0_
*365 from_multiplier_to_adder_3__7_
*366 from_multiplier_to_adder_3__5_
*367 from_multiplier_to_adder_3__4_
*368 from_multiplier_to_adder_3__3_
*369 from_multiplier_to_adder_3__2_
*370 from_multiplier_to_adder_3__1_
*371 from_multiplier_to_adder_3__0_
*372 from_multiplier_to_adder_2__7_
*373 from_multiplier_to_adder_2__5_
*374 from_multiplier_to_adder_2__4_
*375 from_multiplier_to_adder_2__3_
*376 from_multiplier_to_adder_2__2_
*377 from_multiplier_to_adder_2__1_
*378 from_multiplier_to_adder_2__0_
*379 from_multiplier_to_adder_1__7_
*380 from_multiplier_to_adder_1__5_
*381 from_multiplier_to_adder_1__4_
*382 from_multiplier_to_adder_1__3_
*383 from_multiplier_to_adder_1__2_
*384 from_multiplier_to_adder_1__1_
*385 from_multiplier_to_adder_1__0_
*386 from_multiplier_to_adder_0__7_
*387 from_multiplier_to_adder_0__5_
*388 from_multiplier_to_adder_0__4_
*389 from_multiplier_to_adder_0__3_
*390 from_multiplier_to_adder_0__2_
*391 from_multiplier_to_adder_0__1_
*392 from_multiplier_to_adder_0__0_
*393 evaluated_VOUT
*394 i_regIN_DIN_n18
*395 i_regIN_DIN_n17
*396 i_regIN_DIN_n16
*397 i_regIN_DIN_n15
*398 i_regIN_DIN_n14
*399 i_regIN_DIN_n13
*400 i_regIN_DIN_n12
*401 i_regIN_DIN_n11
*402 i_regIN_DIN_n10
*403 i_ffIN_VIN_n2
*404 i_regIN_coeff_0_n45
*405 i_regIN_coeff_0_n44
*406 i_regIN_coeff_0_n43
*407 i_regIN_coeff_0_n42
*408 i_regIN_coeff_0_n41
*409 i_regIN_coeff_0_n40
*410 i_regIN_coeff_0_n39
*411 i_regIN_coeff_0_n38
*412 i_regIN_coeff_0_n37
*413 i_regIN_coeff_1_n45
*414 i_regIN_coeff_1_n44
*415 i_regIN_coeff_1_n43
*416 i_regIN_coeff_1_n42
*417 i_regIN_coeff_1_n41
*418 i_regIN_coeff_1_n40
*419 i_regIN_coeff_1_n39
*420 i_regIN_coeff_1_n38
*421 i_regIN_coeff_1_n37
*422 i_regIN_coeff_2_n45
*423 i_regIN_coeff_2_n44
*424 i_regIN_coeff_2_n43
*425 i_regIN_coeff_2_n42
*426 i_regIN_coeff_2_n41
*427 i_regIN_coeff_2_n40
*428 i_regIN_coeff_2_n39
*429 i_regIN_coeff_2_n38
*430 i_regIN_coeff_2_n37
*431 i_regIN_coeff_3_n45
*432 i_regIN_coeff_3_n44
*433 i_regIN_coeff_3_n43
*434 i_regIN_coeff_3_n42
*435 i_regIN_coeff_3_n41
*436 i_regIN_coeff_3_n40
*437 i_regIN_coeff_3_n39
*438 i_regIN_coeff_3_n38
*439 i_regIN_coeff_3_n37
*440 i_regIN_coeff_4_n45
*441 i_regIN_coeff_4_n44
*442 i_regIN_coeff_4_n43
*443 i_regIN_coeff_4_n42
*444 i_regIN_coeff_4_n41
*445 i_regIN_coeff_4_n40
*446 i_regIN_coeff_4_n39
*447 i_regIN_coeff_4_n38
*448 i_regIN_coeff_4_n37
*449 i_regIN_coeff_5_n45
*450 i_regIN_coeff_5_n44
*451 i_regIN_coeff_5_n43
*452 i_regIN_coeff_5_n42
*453 i_regIN_coeff_5_n41
*454 i_regIN_coeff_5_n40
*455 i_regIN_coeff_5_n39
*456 i_regIN_coeff_5_n38
*457 i_regIN_coeff_5_n37
*458 i_regIN_coeff_6_n45
*459 i_regIN_coeff_6_n44
*460 i_regIN_coeff_6_n43
*461 i_regIN_coeff_6_n42
*462 i_regIN_coeff_6_n41
*463 i_regIN_coeff_6_n40
*464 i_regIN_coeff_6_n39
*465 i_regIN_coeff_6_n38
*466 i_regIN_coeff_6_n37
*467 i_regIN_coeff_7_n45
*468 i_regIN_coeff_7_n44
*469 i_regIN_coeff_7_n43
*470 i_regIN_coeff_7_n42
*471 i_regIN_coeff_7_n41
*472 i_regIN_coeff_7_n40
*473 i_regIN_coeff_7_n39
*474 i_regIN_coeff_7_n38
*475 i_regIN_coeff_7_n37
*476 i_regIN_coeff_8_n45
*477 i_regIN_coeff_8_n44
*478 i_regIN_coeff_8_n43
*479 i_regIN_coeff_8_n42
*480 i_regIN_coeff_8_n41
*481 i_regIN_coeff_8_n40
*482 i_regIN_coeff_8_n39
*483 i_regIN_coeff_8_n38
*484 i_regIN_coeff_8_n37
*485 i_regIN_coeff_9_n45
*486 i_regIN_coeff_9_n44
*487 i_regIN_coeff_9_n43
*488 i_regIN_coeff_9_n42
*489 i_regIN_coeff_9_n41
*490 i_regIN_coeff_9_n40
*491 i_regIN_coeff_9_n39
*492 i_regIN_coeff_9_n38
*493 i_regIN_coeff_9_n37
*494 i_regIN_coeff_10_n45
*495 i_regIN_coeff_10_n44
*496 i_regIN_coeff_10_n43
*497 i_regIN_coeff_10_n42
*498 i_regIN_coeff_10_n41
*499 i_regIN_coeff_10_n40
*500 i_regIN_coeff_10_n39
*501 i_regIN_coeff_10_n38
*502 i_regIN_coeff_10_n37
*503 i_reg_DL_0_n56
*504 i_reg_DL_0_n55
*505 i_reg_DL_0_n54
*506 i_reg_DL_0_n53
*507 i_reg_DL_0_n52
*508 i_reg_DL_0_n51
*509 i_reg_DL_0_n50
*510 i_reg_DL_0_n49
*511 i_reg_DL_0_n48
*512 i_reg_DL_0_n47
*513 i_reg_DL_0_n46
*514 i_reg_DL_0_n45
*515 i_reg_DL_0_n44
*516 i_reg_DL_0_n43
*517 i_reg_DL_0_n42
*518 i_reg_DL_0_n41
*519 i_reg_DL_0_n40
*520 i_reg_DL_0_n39
*521 i_reg_DL_0_n38
*522 i_reg_DL_0_n37
*523 i_reg_DL_0_n36
*524 i_reg_DL_0_n35
*525 i_reg_DL_0_n34
*526 i_reg_DL_0_n33
*527 i_reg_DL_0_n32
*528 i_reg_DL_0_n31
*529 i_reg_DL_0_n30
*530 i_reg_DL_1_n56
*531 i_reg_DL_1_n55
*532 i_reg_DL_1_n54
*533 i_reg_DL_1_n53
*534 i_reg_DL_1_n52
*535 i_reg_DL_1_n51
*536 i_reg_DL_1_n50
*537 i_reg_DL_1_n49
*538 i_reg_DL_1_n48
*539 i_reg_DL_1_n47
*540 i_reg_DL_1_n46
*541 i_reg_DL_1_n45
*542 i_reg_DL_1_n44
*543 i_reg_DL_1_n43
*544 i_reg_DL_1_n42
*545 i_reg_DL_1_n41
*546 i_reg_DL_1_n40
*547 i_reg_DL_1_n39
*548 i_reg_DL_1_n38
*549 i_reg_DL_1_n37
*550 i_reg_DL_1_n36
*551 i_reg_DL_1_n35
*552 i_reg_DL_1_n34
*553 i_reg_DL_1_n33
*554 i_reg_DL_1_n32
*555 i_reg_DL_1_n31
*556 i_reg_DL_1_n30
*557 i_reg_DL_2_n56
*558 i_reg_DL_2_n55
*559 i_reg_DL_2_n54
*560 i_reg_DL_2_n53
*561 i_reg_DL_2_n52
*562 i_reg_DL_2_n51
*563 i_reg_DL_2_n50
*564 i_reg_DL_2_n49
*565 i_reg_DL_2_n48
*566 i_reg_DL_2_n47
*567 i_reg_DL_2_n46
*568 i_reg_DL_2_n45
*569 i_reg_DL_2_n44
*570 i_reg_DL_2_n43
*571 i_reg_DL_2_n42
*572 i_reg_DL_2_n41
*573 i_reg_DL_2_n40
*574 i_reg_DL_2_n39
*575 i_reg_DL_2_n38
*576 i_reg_DL_2_n37
*577 i_reg_DL_2_n36
*578 i_reg_DL_2_n35
*579 i_reg_DL_2_n34
*580 i_reg_DL_2_n33
*581 i_reg_DL_2_n32
*582 i_reg_DL_2_n31
*583 i_reg_DL_2_n30
*584 i_reg_DL_3_n56
*585 i_reg_DL_3_n55
*586 i_reg_DL_3_n54
*587 i_reg_DL_3_n53
*588 i_reg_DL_3_n52
*589 i_reg_DL_3_n51
*590 i_reg_DL_3_n50
*591 i_reg_DL_3_n49
*592 i_reg_DL_3_n48
*593 i_reg_DL_3_n47
*594 i_reg_DL_3_n46
*595 i_reg_DL_3_n45
*596 i_reg_DL_3_n44
*597 i_reg_DL_3_n43
*598 i_reg_DL_3_n42
*599 i_reg_DL_3_n41
*600 i_reg_DL_3_n40
*601 i_reg_DL_3_n39
*602 i_reg_DL_3_n38
*603 i_reg_DL_3_n37
*604 i_reg_DL_3_n36
*605 i_reg_DL_3_n35
*606 i_reg_DL_3_n34
*607 i_reg_DL_3_n33
*608 i_reg_DL_3_n32
*609 i_reg_DL_3_n31
*610 i_reg_DL_3_n30
*611 i_reg_DL_4_n56
*612 i_reg_DL_4_n55
*613 i_reg_DL_4_n54
*614 i_reg_DL_4_n53
*615 i_reg_DL_4_n52
*616 i_reg_DL_4_n51
*617 i_reg_DL_4_n50
*618 i_reg_DL_4_n49
*619 i_reg_DL_4_n48
*620 i_reg_DL_4_n47
*621 i_reg_DL_4_n46
*622 i_reg_DL_4_n45
*623 i_reg_DL_4_n44
*624 i_reg_DL_4_n43
*625 i_reg_DL_4_n42
*626 i_reg_DL_4_n41
*627 i_reg_DL_4_n40
*628 i_reg_DL_4_n39
*629 i_reg_DL_4_n38
*630 i_reg_DL_4_n37
*631 i_reg_DL_4_n36
*632 i_reg_DL_4_n35
*633 i_reg_DL_4_n34
*634 i_reg_DL_4_n33
*635 i_reg_DL_4_n32
*636 i_reg_DL_4_n31
*637 i_reg_DL_4_n30
*638 i_reg_DL_5_n56
*639 i_reg_DL_5_n55
*640 i_reg_DL_5_n54
*641 i_reg_DL_5_n53
*642 i_reg_DL_5_n52
*643 i_reg_DL_5_n51
*644 i_reg_DL_5_n50
*645 i_reg_DL_5_n49
*646 i_reg_DL_5_n48
*647 i_reg_DL_5_n47
*648 i_reg_DL_5_n46
*649 i_reg_DL_5_n45
*650 i_reg_DL_5_n44
*651 i_reg_DL_5_n43
*652 i_reg_DL_5_n42
*653 i_reg_DL_5_n41
*654 i_reg_DL_5_n40
*655 i_reg_DL_5_n39
*656 i_reg_DL_5_n38
*657 i_reg_DL_5_n37
*658 i_reg_DL_5_n36
*659 i_reg_DL_5_n35
*660 i_reg_DL_5_n34
*661 i_reg_DL_5_n33
*662 i_reg_DL_5_n32
*663 i_reg_DL_5_n31
*664 i_reg_DL_5_n30
*665 i_reg_DL_6_n56
*666 i_reg_DL_6_n55
*667 i_reg_DL_6_n54
*668 i_reg_DL_6_n53
*669 i_reg_DL_6_n52
*670 i_reg_DL_6_n51
*671 i_reg_DL_6_n50
*672 i_reg_DL_6_n49
*673 i_reg_DL_6_n48
*674 i_reg_DL_6_n47
*675 i_reg_DL_6_n46
*676 i_reg_DL_6_n45
*677 i_reg_DL_6_n44
*678 i_reg_DL_6_n43
*679 i_reg_DL_6_n42
*680 i_reg_DL_6_n41
*681 i_reg_DL_6_n40
*682 i_reg_DL_6_n39
*683 i_reg_DL_6_n38
*684 i_reg_DL_6_n37
*685 i_reg_DL_6_n36
*686 i_reg_DL_6_n35
*687 i_reg_DL_6_n34
*688 i_reg_DL_6_n33
*689 i_reg_DL_6_n32
*690 i_reg_DL_6_n31
*691 i_reg_DL_6_n30
*692 i_reg_DL_7_n56
*693 i_reg_DL_7_n55
*694 i_reg_DL_7_n54
*695 i_reg_DL_7_n53
*696 i_reg_DL_7_n52
*697 i_reg_DL_7_n51
*698 i_reg_DL_7_n50
*699 i_reg_DL_7_n49
*700 i_reg_DL_7_n48
*701 i_reg_DL_7_n47
*702 i_reg_DL_7_n46
*703 i_reg_DL_7_n45
*704 i_reg_DL_7_n44
*705 i_reg_DL_7_n43
*706 i_reg_DL_7_n42
*707 i_reg_DL_7_n41
*708 i_reg_DL_7_n40
*709 i_reg_DL_7_n39
*710 i_reg_DL_7_n38
*711 i_reg_DL_7_n37
*712 i_reg_DL_7_n36
*713 i_reg_DL_7_n35
*714 i_reg_DL_7_n34
*715 i_reg_DL_7_n33
*716 i_reg_DL_7_n32
*717 i_reg_DL_7_n31
*718 i_reg_DL_7_n30
*719 i_reg_DL_8_n56
*720 i_reg_DL_8_n55
*721 i_reg_DL_8_n54
*722 i_reg_DL_8_n53
*723 i_reg_DL_8_n52
*724 i_reg_DL_8_n51
*725 i_reg_DL_8_n50
*726 i_reg_DL_8_n49
*727 i_reg_DL_8_n48
*728 i_reg_DL_8_n47
*729 i_reg_DL_8_n46
*730 i_reg_DL_8_n45
*731 i_reg_DL_8_n44
*732 i_reg_DL_8_n43
*733 i_reg_DL_8_n42
*734 i_reg_DL_8_n41
*735 i_reg_DL_8_n40
*736 i_reg_DL_8_n39
*737 i_reg_DL_8_n38
*738 i_reg_DL_8_n37
*739 i_reg_DL_8_n36
*740 i_reg_DL_8_n35
*741 i_reg_DL_8_n34
*742 i_reg_DL_8_n33
*743 i_reg_DL_8_n32
*744 i_reg_DL_8_n31
*745 i_reg_DL_8_n30
*746 i_reg_DL_9_n56
*747 i_reg_DL_9_n55
*748 i_reg_DL_9_n54
*749 i_reg_DL_9_n53
*750 i_reg_DL_9_n52
*751 i_reg_DL_9_n51
*752 i_reg_DL_9_n50
*753 i_reg_DL_9_n49
*754 i_reg_DL_9_n48
*755 i_reg_DL_9_n47
*756 i_reg_DL_9_n46
*757 i_reg_DL_9_n45
*758 i_reg_DL_9_n44
*759 i_reg_DL_9_n43
*760 i_reg_DL_9_n42
*761 i_reg_DL_9_n41
*762 i_reg_DL_9_n40
*763 i_reg_DL_9_n39
*764 i_reg_DL_9_n38
*765 i_reg_DL_9_n37
*766 i_reg_DL_9_n36
*767 i_reg_DL_9_n35
*768 i_reg_DL_9_n34
*769 i_reg_DL_9_n33
*770 i_reg_DL_9_n32
*771 i_reg_DL_9_n31
*772 i_reg_DL_9_n30
*773 i_shift_reg_n23
*774 i_shift_reg_n22
*775 i_shift_reg_n21
*776 i_shift_reg_n20
*777 i_shift_reg_n19
*778 i_shift_reg_n18
*779 i_shift_reg_n17
*780 i_shift_reg_n16
*781 i_shift_reg_n15
*782 i_shift_reg_n14
*783 i_shift_reg_n13
*784 i_shift_reg_n12
*785 i_shift_reg_n11
*786 i_shift_reg_n10
*787 i_shift_reg_n9
*788 i_shift_reg_n8
*789 i_shift_reg_n7
*790 i_shift_reg_n6
*791 i_shift_reg_n5
*792 i_shift_reg_n4
*793 i_shift_reg_n3
*794 i_shift_reg_n2
*795 i_mult_0_MULTIPLIER_OUT_PRODUCT_0_
*796 i_mult_0_mult_30_n375
*797 i_mult_0_mult_30_n374
*798 i_mult_0_mult_30_n373
*799 i_mult_0_mult_30_n372
*800 i_mult_0_mult_30_n371
*801 i_mult_0_mult_30_n370
*802 i_mult_0_mult_30_n369
*803 i_mult_0_mult_30_n368
*804 i_mult_0_mult_30_n367
*805 i_mult_0_mult_30_n366
*806 i_mult_0_mult_30_n365
*807 i_mult_0_mult_30_n364
*808 i_mult_0_mult_30_n363
*809 i_mult_0_mult_30_n362
*810 i_mult_0_mult_30_n361
*811 i_mult_0_mult_30_n360
*812 i_mult_0_mult_30_n359
*813 i_mult_0_mult_30_n358
*814 i_mult_0_mult_30_n357
*815 i_mult_0_mult_30_n356
*816 i_mult_0_mult_30_n355
*817 i_mult_0_mult_30_n354
*818 i_mult_0_mult_30_n353
*819 i_mult_0_mult_30_n352
*820 i_mult_0_mult_30_n351
*821 i_mult_0_mult_30_n350
*822 i_mult_0_mult_30_n349
*823 i_mult_0_mult_30_n348
*824 i_mult_0_mult_30_n347
*825 i_mult_0_mult_30_n346
*826 i_mult_0_mult_30_n345
*827 i_mult_0_mult_30_n344
*828 i_mult_0_mult_30_n343
*829 i_mult_0_mult_30_n342
*830 i_mult_0_mult_30_n341
*831 i_mult_0_mult_30_n340
*832 i_mult_0_mult_30_n339
*833 i_mult_0_mult_30_n338
*834 i_mult_0_mult_30_n337
*835 i_mult_0_mult_30_n336
*836 i_mult_0_mult_30_n335
*837 i_mult_0_mult_30_n334
*838 i_mult_0_mult_30_n333
*839 i_mult_0_mult_30_n332
*840 i_mult_0_mult_30_n331
*841 i_mult_0_mult_30_n330
*842 i_mult_0_mult_30_n329
*843 i_mult_0_mult_30_n328
*844 i_mult_0_mult_30_n327
*845 i_mult_0_mult_30_n326
*846 i_mult_0_mult_30_n325
*847 i_mult_0_mult_30_n324
*848 i_mult_0_mult_30_n323
*849 i_mult_0_mult_30_n322
*850 i_mult_0_mult_30_n321
*851 i_mult_0_mult_30_n320
*852 i_mult_0_mult_30_n319
*853 i_mult_0_mult_30_n318
*854 i_mult_0_mult_30_n317
*855 i_mult_0_mult_30_n316
*856 i_mult_0_mult_30_n315
*857 i_mult_0_mult_30_n314
*858 i_mult_0_mult_30_n313
*859 i_mult_0_mult_30_n312
*860 i_mult_0_mult_30_n311
*861 i_mult_0_mult_30_n310
*862 i_mult_0_mult_30_n309
*863 i_mult_0_mult_30_n308
*864 i_mult_0_mult_30_n307
*865 i_mult_0_mult_30_n306
*866 i_mult_0_mult_30_n305
*867 i_mult_0_mult_30_n304
*868 i_mult_0_mult_30_n303
*869 i_mult_0_mult_30_n302
*870 i_mult_0_mult_30_n301
*871 i_mult_0_mult_30_n300
*872 i_mult_0_mult_30_n299
*873 i_mult_0_mult_30_n298
*874 i_mult_0_mult_30_n297
*875 i_mult_0_mult_30_n296
*876 i_mult_0_mult_30_n295
*877 i_mult_0_mult_30_n294
*878 i_mult_0_mult_30_n293
*879 i_mult_0_mult_30_n292
*880 i_mult_0_mult_30_n291
*881 i_mult_0_mult_30_n290
*882 i_mult_0_mult_30_n289
*883 i_mult_0_mult_30_n288
*884 i_mult_0_mult_30_n287
*885 i_mult_0_mult_30_n286
*886 i_mult_0_mult_30_n285
*887 i_mult_0_mult_30_n284
*888 i_mult_0_mult_30_n283
*889 i_mult_0_mult_30_n282
*890 i_mult_0_mult_30_n281
*891 i_mult_0_mult_30_n280
*892 i_mult_0_mult_30_n279
*893 i_mult_0_mult_30_n278
*894 i_mult_0_mult_30_n277
*895 i_mult_0_mult_30_n141
*896 i_mult_0_mult_30_n140
*897 i_mult_0_mult_30_n139
*898 i_mult_0_mult_30_n138
*899 i_mult_0_mult_30_n137
*900 i_mult_0_mult_30_n136
*901 i_mult_0_mult_30_n133
*902 i_mult_0_mult_30_n132
*903 i_mult_0_mult_30_n131
*904 i_mult_0_mult_30_n130
*905 i_mult_0_mult_30_n129
*906 i_mult_0_mult_30_n128
*907 i_mult_0_mult_30_n127
*908 i_mult_0_mult_30_n125
*909 i_mult_0_mult_30_n124
*910 i_mult_0_mult_30_n123
*911 i_mult_0_mult_30_n122
*912 i_mult_0_mult_30_n121
*913 i_mult_0_mult_30_n120
*914 i_mult_0_mult_30_n119
*915 i_mult_0_mult_30_n118
*916 i_mult_0_mult_30_n116
*917 i_mult_0_mult_30_n115
*918 i_mult_0_mult_30_n114
*919 i_mult_0_mult_30_n112
*920 i_mult_0_mult_30_n111
*921 i_mult_0_mult_30_n110
*922 i_mult_0_mult_30_n109
*923 i_mult_0_mult_30_n107
*924 i_mult_0_mult_30_n105
*925 i_mult_0_mult_30_n104
*926 i_mult_0_mult_30_n103
*927 i_mult_0_mult_30_n102
*928 i_mult_0_mult_30_n101
*929 i_mult_0_mult_30_n100
*930 i_mult_0_mult_30_n96
*931 i_mult_0_mult_30_n95
*932 i_mult_0_mult_30_n94
*933 i_mult_0_mult_30_n79
*934 i_mult_0_mult_30_n78
*935 i_mult_0_mult_30_n77
*936 i_mult_0_mult_30_n76
*937 i_mult_0_mult_30_n75
*938 i_mult_0_mult_30_n74
*939 i_mult_0_mult_30_n73
*940 i_mult_0_mult_30_n72
*941 i_mult_0_mult_30_n71
*942 i_mult_0_mult_30_n70
*943 i_mult_0_mult_30_n69
*944 i_mult_0_mult_30_n68
*945 i_mult_0_mult_30_n67
*946 i_mult_0_mult_30_n66
*947 i_mult_0_mult_30_n65
*948 i_mult_0_mult_30_n64
*949 i_mult_0_mult_30_n63
*950 i_mult_0_mult_30_n62
*951 i_mult_0_mult_30_n61
*952 i_mult_0_mult_30_n60
*953 i_mult_0_mult_30_n59
*954 i_mult_0_mult_30_n58
*955 i_mult_0_mult_30_n57
*956 i_mult_0_mult_30_n56
*957 i_mult_0_mult_30_n55
*958 i_mult_0_mult_30_n54
*959 i_mult_0_mult_30_n53
*960 i_mult_0_mult_30_n52
*961 i_mult_0_mult_30_n51
*962 i_mult_0_mult_30_n50
*963 i_mult_0_mult_30_n49
*964 i_mult_0_mult_30_n48
*965 i_mult_0_mult_30_n46
*966 i_mult_0_mult_30_n45
*967 i_mult_0_mult_30_n44
*968 i_mult_0_mult_30_n43
*969 i_mult_0_mult_30_n42
*970 i_mult_0_mult_30_n41
*971 i_mult_0_mult_30_n40
*972 i_mult_0_mult_30_n39
*973 i_mult_0_mult_30_n38
*974 i_mult_0_mult_30_n37
*975 i_mult_0_mult_30_n36
*976 i_mult_0_mult_30_n35
*977 i_mult_0_mult_30_n34
*978 i_mult_0_mult_30_n32
*979 i_mult_0_mult_30_n31
*980 i_mult_0_mult_30_n30
*981 i_mult_0_mult_30_n29
*982 i_mult_0_mult_30_n28
*983 i_mult_0_mult_30_n27
*984 i_mult_0_mult_30_n26
*985 i_mult_0_mult_30_n25
*986 i_mult_0_mult_30_n24
*987 i_mult_0_mult_30_n22
*988 i_mult_0_mult_30_n21
*989 i_mult_0_mult_30_n20
*990 i_mult_0_mult_30_n19
*991 i_mult_0_mult_30_n18
*992 i_mult_0_mult_30_n7
*993 i_mult_0_mult_30_n6
*994 i_mult_0_mult_30_n5
*995 i_mult_0_mult_30_n4
*996 i_mult_0_mult_30_n3
*997 i_mult_0_mult_30_n2
*998 i_mult_1_MULTIPLIER_OUT_PRODUCT_0_
*999 i_mult_1_mult_30_n375
*1000 i_mult_1_mult_30_n374
*1001 i_mult_1_mult_30_n373
*1002 i_mult_1_mult_30_n372
*1003 i_mult_1_mult_30_n371
*1004 i_mult_1_mult_30_n370
*1005 i_mult_1_mult_30_n369
*1006 i_mult_1_mult_30_n368
*1007 i_mult_1_mult_30_n367
*1008 i_mult_1_mult_30_n366
*1009 i_mult_1_mult_30_n365
*1010 i_mult_1_mult_30_n364
*1011 i_mult_1_mult_30_n363
*1012 i_mult_1_mult_30_n362
*1013 i_mult_1_mult_30_n361
*1014 i_mult_1_mult_30_n360
*1015 i_mult_1_mult_30_n359
*1016 i_mult_1_mult_30_n358
*1017 i_mult_1_mult_30_n357
*1018 i_mult_1_mult_30_n356
*1019 i_mult_1_mult_30_n355
*1020 i_mult_1_mult_30_n354
*1021 i_mult_1_mult_30_n353
*1022 i_mult_1_mult_30_n352
*1023 i_mult_1_mult_30_n351
*1024 i_mult_1_mult_30_n350
*1025 i_mult_1_mult_30_n349
*1026 i_mult_1_mult_30_n348
*1027 i_mult_1_mult_30_n347
*1028 i_mult_1_mult_30_n346
*1029 i_mult_1_mult_30_n345
*1030 i_mult_1_mult_30_n344
*1031 i_mult_1_mult_30_n343
*1032 i_mult_1_mult_30_n342
*1033 i_mult_1_mult_30_n341
*1034 i_mult_1_mult_30_n340
*1035 i_mult_1_mult_30_n339
*1036 i_mult_1_mult_30_n338
*1037 i_mult_1_mult_30_n337
*1038 i_mult_1_mult_30_n336
*1039 i_mult_1_mult_30_n335
*1040 i_mult_1_mult_30_n334
*1041 i_mult_1_mult_30_n333
*1042 i_mult_1_mult_30_n332
*1043 i_mult_1_mult_30_n331
*1044 i_mult_1_mult_30_n330
*1045 i_mult_1_mult_30_n329
*1046 i_mult_1_mult_30_n328
*1047 i_mult_1_mult_30_n327
*1048 i_mult_1_mult_30_n326
*1049 i_mult_1_mult_30_n325
*1050 i_mult_1_mult_30_n324
*1051 i_mult_1_mult_30_n323
*1052 i_mult_1_mult_30_n322
*1053 i_mult_1_mult_30_n321
*1054 i_mult_1_mult_30_n320
*1055 i_mult_1_mult_30_n319
*1056 i_mult_1_mult_30_n318
*1057 i_mult_1_mult_30_n317
*1058 i_mult_1_mult_30_n316
*1059 i_mult_1_mult_30_n315
*1060 i_mult_1_mult_30_n314
*1061 i_mult_1_mult_30_n313
*1062 i_mult_1_mult_30_n312
*1063 i_mult_1_mult_30_n311
*1064 i_mult_1_mult_30_n310
*1065 i_mult_1_mult_30_n309
*1066 i_mult_1_mult_30_n308
*1067 i_mult_1_mult_30_n307
*1068 i_mult_1_mult_30_n306
*1069 i_mult_1_mult_30_n305
*1070 i_mult_1_mult_30_n304
*1071 i_mult_1_mult_30_n303
*1072 i_mult_1_mult_30_n302
*1073 i_mult_1_mult_30_n301
*1074 i_mult_1_mult_30_n300
*1075 i_mult_1_mult_30_n299
*1076 i_mult_1_mult_30_n298
*1077 i_mult_1_mult_30_n297
*1078 i_mult_1_mult_30_n296
*1079 i_mult_1_mult_30_n295
*1080 i_mult_1_mult_30_n294
*1081 i_mult_1_mult_30_n293
*1082 i_mult_1_mult_30_n292
*1083 i_mult_1_mult_30_n291
*1084 i_mult_1_mult_30_n290
*1085 i_mult_1_mult_30_n289
*1086 i_mult_1_mult_30_n288
*1087 i_mult_1_mult_30_n287
*1088 i_mult_1_mult_30_n286
*1089 i_mult_1_mult_30_n285
*1090 i_mult_1_mult_30_n284
*1091 i_mult_1_mult_30_n283
*1092 i_mult_1_mult_30_n282
*1093 i_mult_1_mult_30_n281
*1094 i_mult_1_mult_30_n280
*1095 i_mult_1_mult_30_n279
*1096 i_mult_1_mult_30_n278
*1097 i_mult_1_mult_30_n277
*1098 i_mult_1_mult_30_n141
*1099 i_mult_1_mult_30_n140
*1100 i_mult_1_mult_30_n139
*1101 i_mult_1_mult_30_n138
*1102 i_mult_1_mult_30_n137
*1103 i_mult_1_mult_30_n136
*1104 i_mult_1_mult_30_n133
*1105 i_mult_1_mult_30_n132
*1106 i_mult_1_mult_30_n131
*1107 i_mult_1_mult_30_n130
*1108 i_mult_1_mult_30_n129
*1109 i_mult_1_mult_30_n128
*1110 i_mult_1_mult_30_n127
*1111 i_mult_1_mult_30_n125
*1112 i_mult_1_mult_30_n124
*1113 i_mult_1_mult_30_n123
*1114 i_mult_1_mult_30_n122
*1115 i_mult_1_mult_30_n121
*1116 i_mult_1_mult_30_n120
*1117 i_mult_1_mult_30_n119
*1118 i_mult_1_mult_30_n118
*1119 i_mult_1_mult_30_n116
*1120 i_mult_1_mult_30_n115
*1121 i_mult_1_mult_30_n114
*1122 i_mult_1_mult_30_n112
*1123 i_mult_1_mult_30_n111
*1124 i_mult_1_mult_30_n110
*1125 i_mult_1_mult_30_n109
*1126 i_mult_1_mult_30_n107
*1127 i_mult_1_mult_30_n105
*1128 i_mult_1_mult_30_n104
*1129 i_mult_1_mult_30_n103
*1130 i_mult_1_mult_30_n102
*1131 i_mult_1_mult_30_n101
*1132 i_mult_1_mult_30_n100
*1133 i_mult_1_mult_30_n96
*1134 i_mult_1_mult_30_n95
*1135 i_mult_1_mult_30_n94
*1136 i_mult_1_mult_30_n79
*1137 i_mult_1_mult_30_n78
*1138 i_mult_1_mult_30_n77
*1139 i_mult_1_mult_30_n76
*1140 i_mult_1_mult_30_n75
*1141 i_mult_1_mult_30_n74
*1142 i_mult_1_mult_30_n73
*1143 i_mult_1_mult_30_n72
*1144 i_mult_1_mult_30_n71
*1145 i_mult_1_mult_30_n70
*1146 i_mult_1_mult_30_n69
*1147 i_mult_1_mult_30_n68
*1148 i_mult_1_mult_30_n67
*1149 i_mult_1_mult_30_n66
*1150 i_mult_1_mult_30_n65
*1151 i_mult_1_mult_30_n64
*1152 i_mult_1_mult_30_n63
*1153 i_mult_1_mult_30_n62
*1154 i_mult_1_mult_30_n61
*1155 i_mult_1_mult_30_n60
*1156 i_mult_1_mult_30_n59
*1157 i_mult_1_mult_30_n58
*1158 i_mult_1_mult_30_n57
*1159 i_mult_1_mult_30_n56
*1160 i_mult_1_mult_30_n55
*1161 i_mult_1_mult_30_n54
*1162 i_mult_1_mult_30_n53
*1163 i_mult_1_mult_30_n52
*1164 i_mult_1_mult_30_n51
*1165 i_mult_1_mult_30_n50
*1166 i_mult_1_mult_30_n49
*1167 i_mult_1_mult_30_n48
*1168 i_mult_1_mult_30_n46
*1169 i_mult_1_mult_30_n45
*1170 i_mult_1_mult_30_n44
*1171 i_mult_1_mult_30_n43
*1172 i_mult_1_mult_30_n42
*1173 i_mult_1_mult_30_n41
*1174 i_mult_1_mult_30_n40
*1175 i_mult_1_mult_30_n39
*1176 i_mult_1_mult_30_n38
*1177 i_mult_1_mult_30_n37
*1178 i_mult_1_mult_30_n36
*1179 i_mult_1_mult_30_n35
*1180 i_mult_1_mult_30_n34
*1181 i_mult_1_mult_30_n32
*1182 i_mult_1_mult_30_n31
*1183 i_mult_1_mult_30_n30
*1184 i_mult_1_mult_30_n29
*1185 i_mult_1_mult_30_n28
*1186 i_mult_1_mult_30_n27
*1187 i_mult_1_mult_30_n26
*1188 i_mult_1_mult_30_n25
*1189 i_mult_1_mult_30_n24
*1190 i_mult_1_mult_30_n22
*1191 i_mult_1_mult_30_n21
*1192 i_mult_1_mult_30_n20
*1193 i_mult_1_mult_30_n19
*1194 i_mult_1_mult_30_n18
*1195 i_mult_1_mult_30_n7
*1196 i_mult_1_mult_30_n6
*1197 i_mult_1_mult_30_n5
*1198 i_mult_1_mult_30_n4
*1199 i_mult_1_mult_30_n3
*1200 i_mult_1_mult_30_n2
*1201 i_mult_2_MULTIPLIER_OUT_PRODUCT_0_
*1202 i_mult_2_mult_30_n375
*1203 i_mult_2_mult_30_n374
*1204 i_mult_2_mult_30_n373
*1205 i_mult_2_mult_30_n372
*1206 i_mult_2_mult_30_n371
*1207 i_mult_2_mult_30_n370
*1208 i_mult_2_mult_30_n369
*1209 i_mult_2_mult_30_n368
*1210 i_mult_2_mult_30_n367
*1211 i_mult_2_mult_30_n366
*1212 i_mult_2_mult_30_n365
*1213 i_mult_2_mult_30_n364
*1214 i_mult_2_mult_30_n363
*1215 i_mult_2_mult_30_n362
*1216 i_mult_2_mult_30_n361
*1217 i_mult_2_mult_30_n360
*1218 i_mult_2_mult_30_n359
*1219 i_mult_2_mult_30_n358
*1220 i_mult_2_mult_30_n357
*1221 i_mult_2_mult_30_n356
*1222 i_mult_2_mult_30_n355
*1223 i_mult_2_mult_30_n354
*1224 i_mult_2_mult_30_n353
*1225 i_mult_2_mult_30_n352
*1226 i_mult_2_mult_30_n351
*1227 i_mult_2_mult_30_n350
*1228 i_mult_2_mult_30_n349
*1229 i_mult_2_mult_30_n348
*1230 i_mult_2_mult_30_n347
*1231 i_mult_2_mult_30_n346
*1232 i_mult_2_mult_30_n345
*1233 i_mult_2_mult_30_n344
*1234 i_mult_2_mult_30_n343
*1235 i_mult_2_mult_30_n342
*1236 i_mult_2_mult_30_n341
*1237 i_mult_2_mult_30_n340
*1238 i_mult_2_mult_30_n339
*1239 i_mult_2_mult_30_n338
*1240 i_mult_2_mult_30_n337
*1241 i_mult_2_mult_30_n336
*1242 i_mult_2_mult_30_n335
*1243 i_mult_2_mult_30_n334
*1244 i_mult_2_mult_30_n333
*1245 i_mult_2_mult_30_n332
*1246 i_mult_2_mult_30_n331
*1247 i_mult_2_mult_30_n330
*1248 i_mult_2_mult_30_n329
*1249 i_mult_2_mult_30_n328
*1250 i_mult_2_mult_30_n327
*1251 i_mult_2_mult_30_n326
*1252 i_mult_2_mult_30_n325
*1253 i_mult_2_mult_30_n324
*1254 i_mult_2_mult_30_n323
*1255 i_mult_2_mult_30_n322
*1256 i_mult_2_mult_30_n321
*1257 i_mult_2_mult_30_n320
*1258 i_mult_2_mult_30_n319
*1259 i_mult_2_mult_30_n318
*1260 i_mult_2_mult_30_n317
*1261 i_mult_2_mult_30_n316
*1262 i_mult_2_mult_30_n315
*1263 i_mult_2_mult_30_n314
*1264 i_mult_2_mult_30_n313
*1265 i_mult_2_mult_30_n312
*1266 i_mult_2_mult_30_n311
*1267 i_mult_2_mult_30_n310
*1268 i_mult_2_mult_30_n309
*1269 i_mult_2_mult_30_n308
*1270 i_mult_2_mult_30_n307
*1271 i_mult_2_mult_30_n306
*1272 i_mult_2_mult_30_n305
*1273 i_mult_2_mult_30_n304
*1274 i_mult_2_mult_30_n303
*1275 i_mult_2_mult_30_n302