*SPEF "IEEE 1481-1998"
*DESIGN "filter"
*DATE "Thu Oct 21 13:57:52 2021"
*VENDOR "Cadence Design Systems, Inc."
*PROGRAM "Innovus"
*VERSION "17.11-s080_1"
*DESIGN_FLOW "COUPLING C" "PIN_CAP NONE" "NAME_SCOPE LOCAL"
*DIVIDER /
*DELIMITER :
*BUS_DELIMITER []
*T_UNIT 1 NS
*C_UNIT 1 PF
*R_UNIT 1 OHM
*L_UNIT 1 HENRY

// MMMC spef file for corner 'my_rc'

*NAME_MAP

*1 RST_n
*2 CLK
*3 b0[8]
*4 b0[7]
*5 b0[6]
*6 b0[5]
*7 b0[4]
*8 b0[3]
*9 b0[2]
*10 b0[1]
*11 b0[0]
*12 b1[8]
*13 b1[7]
*14 b1[6]
*15 b1[5]
*16 b1[4]
*17 b1[3]
*18 b1[2]
*19 b1[1]
*20 b1[0]
*21 b2[8]
*22 b2[7]
*23 b2[6]
*24 b2[5]
*25 b2[4]
*26 b2[3]
*27 b2[2]
*28 b2[1]
*29 b2[0]
*30 b3[8]
*31 b3[7]
*32 b3[6]
*33 b3[5]
*34 b3[4]
*35 b3[3]
*36 b3[2]
*37 b3[1]
*38 b3[0]
*39 b4[8]
*40 b4[7]
*41 b4[6]
*42 b4[5]
*43 b4[4]
*44 b4[3]
*45 b4[2]
*46 b4[1]
*47 b4[0]
*48 b5[8]
*49 b5[7]
*50 b5[6]
*51 b5[5]
*52 b5[4]
*53 b5[3]
*54 b5[2]
*55 b5[1]
*56 b5[0]
*57 b6[8]
*58 b6[7]
*59 b6[6]
*60 b6[5]
*61 b6[4]
*62 b6[3]
*63 b6[2]
*64 b6[1]
*65 b6[0]
*66 b7[8]
*67 b7[7]
*68 b7[6]
*69 b7[5]
*70 b7[4]
*71 b7[3]
*72 b7[2]
*73 b7[1]
*74 b7[0]
*75 b8[8]
*76 b8[7]
*77 b8[6]
*78 b8[5]
*79 b8[4]
*80 b8[3]
*81 b8[2]
*82 b8[1]
*83 b8[0]
*84 b9[8]
*85 b9[7]
*86 b9[6]
*87 b9[5]
*88 b9[4]
*89 b9[3]
*90 b9[2]
*91 b9[1]
*92 b9[0]
*93 b10[8]
*94 b10[7]
*95 b10[6]
*96 b10[5]
*97 b10[4]
*98 b10[3]
*99 b10[2]
*100 b10[1]
*101 b10[0]
*102 VIN
*103 DIN[8]
*104 DIN[7]
*105 DIN[6]
*106 DIN[5]
*107 DIN[4]
*108 DIN[3]
*109 DIN[2]
*110 DIN[1]
*111 DIN[0]
*112 VOUT
*113 DOUT[8]
*114 DOUT[7]
*115 DOUT[6]
*116 DOUT[5]
*117 DOUT[4]
*118 DOUT[3]
*119 DOUT[2]
*120 DOUT[1]
*121 DOUT[0]
*122 FE_OFN29_RST_n
*123 FE_OFN28_RST_n
*124 FE_OFN27_RST_n
*125 FE_OFN26_RST_n
*126 FE_OFN25_i_mult_3_mult_26_n311
*127 FE_OFN24_i_mult_1_mult_26_n311
*128 FE_OFN23_i_mult_6_mult_26_n308
*129 FE_OFN22_i_mult_2_mult_26_n311
*130 FE_OFN21_i_mult_4_mult_26_n311
*131 FE_OFN20_i_mult_8_mult_26_n311
*132 FE_OFN19_i_mult_6_mult_26_n311
*133 FE_OFN18_i_mult_10_mult_26_n311
*134 FE_OFN17_i_mult_0_mult_26_n308
*135 FE_OFN16_i_mult_5_mult_26_n311
*136 FE_OFN15_i_mult_7_mult_26_n311
*137 FE_OFN14_i_mult_10_mult_26_n308
*138 FE_OFN13_i_mult_0_mult_26_n311
*139 FE_OFN12_i_mult_7_mult_26_n308
*140 FE_OFN11_i_mult_4_mult_26_n308
*141 FE_OFN10_i_mult_3_mult_26_n308
*142 FE_OFN9_i_mult_1_mult_26_n308
*143 FE_OFN8_i_mult_9_mult_26_n308
*144 FE_OFN7_i_mult_2_mult_26_n308
*145 FE_OFN6_i_mult_5_mult_26_n308
*146 FE_OFN5_i_mult_9_mult_26_n311
*147 FE_OFN4_i_mult_8_mult_26_n308
*148 FE_OFN3_delay_line_0__0
*149 FE_OFN2_delay_line_0__0
*150 FE_OFN1_delay_line_0__0
*151 FE_OFN0_delay_line_0__0
*152 delay_line_10__9_
*153 delay_line_10__8_
*154 delay_line_10__7_
*155 delay_line_10__6_
*156 delay_line_10__5_
*157 delay_line_10__4_
*158 delay_line_10__3_
*159 delay_line_10__2_
*160 delay_line_10__1_
*161 delay_line_10__0_
*162 delay_line_9__9_
*163 delay_line_9__8_
*164 delay_line_9__7_
*165 delay_line_9__6_
*166 delay_line_9__5_
*167 delay_line_9__4_
*168 delay_line_9__3_
*169 delay_line_9__2_
*170 delay_line_9__1_
*171 delay_line_9__0_
*172 delay_line_8__9_
*173 delay_line_8__8_
*174 delay_line_8__7_
*175 delay_line_8__6_
*176 delay_line_8__5_
*177 delay_line_8__4_
*178 delay_line_8__3_
*179 delay_line_8__2_
*180 delay_line_8__1_
*181 delay_line_8__0_
*182 delay_line_7__9_
*183 delay_line_7__8_
*184 delay_line_7__7_
*185 delay_line_7__6_
*186 delay_line_7__5_
*187 delay_line_7__4_
*188 delay_line_7__3_
*189 delay_line_7__2_
*190 delay_line_7__1_
*191 delay_line_7__0_
*192 delay_line_6__9_
*193 delay_line_6__8_
*194 delay_line_6__7_
*195 delay_line_6__6_
*196 delay_line_6__5_
*197 delay_line_6__4_
*198 delay_line_6__3_
*199 delay_line_6__2_
*200 delay_line_6__1_
*201 delay_line_6__0_
*202 delay_line_5__9_
*203 delay_line_5__8_
*204 delay_line_5__7_
*205 delay_line_5__6_
*206 delay_line_5__5_
*207 delay_line_5__4_
*208 delay_line_5__3_
*209 delay_line_5__2_
*210 delay_line_5__1_
*211 delay_line_5__0_
*212 delay_line_4__9_
*213 delay_line_4__8_
*214 delay_line_4__7_
*215 delay_line_4__6_
*216 delay_line_4__5_
*217 delay_line_4__4_
*218 delay_line_4__3_
*219 delay_line_4__2_
*220 delay_line_4__1_
*221 delay_line_4__0_
*222 delay_line_3__9_
*223 delay_line_3__8_
*224 delay_line_3__7_
*225 delay_line_3__6_
*226 delay_line_3__5_
*227 delay_line_3__4_
*228 delay_line_3__3_
*229 delay_line_3__2_
*230 delay_line_3__1_
*231 delay_line_3__0_
*232 delay_line_2__9_
*233 delay_line_2__8_
*234 delay_line_2__7_
*235 delay_line_2__6_
*236 delay_line_2__5_
*237 delay_line_2__4_
*238 delay_line_2__3_
*239 delay_line_2__2_
*240 delay_line_2__1_
*241 delay_line_2__0_
*242 delay_line_1__9_
*243 delay_line_1__8_
*244 delay_line_1__7_
*245 delay_line_1__6_
*246 delay_line_1__5_
*247 delay_line_1__4_
*248 delay_line_1__3_
*249 delay_line_1__2_
*250 delay_line_1__1_
*251 delay_line_1__0_
*252 delay_line_0__0_
*253 sum_9__7_
*254 sum_9__6_
*255 sum_9__5_
*256 sum_9__4_
*257 sum_9__3_
*258 sum_9__2_
*259 sum_9__1_
*260 sum_9__0_
*261 sum_8__7_
*262 sum_8__6_
*263 sum_8__5_
*264 sum_8__4_
*265 sum_8__3_
*266 sum_8__2_
*267 sum_8__1_
*268 sum_8__0_
*269 sum_7__7_
*270 sum_7__6_
*271 sum_7__5_
*272 sum_7__4_
*273 sum_7__3_
*274 sum_7__2_
*275 sum_7__1_
*276 sum_7__0_
*277 sum_6__7_
*278 sum_6__6_
*279 sum_6__5_
*280 sum_6__4_
*281 sum_6__3_
*282 sum_6__2_
*283 sum_6__1_
*284 sum_6__0_
*285 sum_5__7_
*286 sum_5__6_
*287 sum_5__5_
*288 sum_5__4_
*289 sum_5__3_
*290 sum_5__2_
*291 sum_5__1_
*292 sum_5__0_
*293 sum_4__7_
*294 sum_4__6_
*295 sum_4__5_
*296 sum_4__4_
*297 sum_4__3_
*298 sum_4__2_
*299 sum_4__1_
*300 sum_4__0_
*301 sum_3__7_
*302 sum_3__6_
*303 sum_3__5_
*304 sum_3__4_
*305 sum_3__3_
*306 sum_3__2_
*307 sum_3__1_
*308 sum_3__0_
*309 sum_2__7_
*310 sum_2__6_
*311 sum_2__5_
*312 sum_2__4_
*313 sum_2__3_
*314 sum_2__2_
*315 sum_2__1_
*316 sum_2__0_
*317 sum_1__7_
*318 sum_1__6_
*319 sum_1__5_
*320 sum_1__4_
*321 sum_1__3_
*322 sum_1__2_
*323 sum_1__1_
*324 sum_1__0_
*325 sum_0__7_
*326 sum_0__5_
*327 sum_0__4_
*328 sum_0__3_
*329 sum_0__2_
*330 sum_0__1_
*331 sum_0__0_
*332 from_multiplier_to_adder_9__7_
*333 from_multiplier_to_adder_9__5_
*334 from_multiplier_to_adder_9__4_
*335 from_multiplier_to_adder_9__3_
*336 from_multiplier_to_adder_9__2_
*337 from_multiplier_to_adder_9__1_
*338 from_multiplier_to_adder_9__0_
*339 from_multiplier_to_adder_8__7_
*340 from_multiplier_to_adder_8__5_
*341 from_multiplier_to_adder_8__4_
*342 from_multiplier_to_adder_8__3_
*343 from_multiplier_to_adder_8__2_
*344 from_multiplier_to_adder_8__1_
*345 from_multiplier_to_adder_8__0_
*346 from_multiplier_to_adder_7__7_
*347 from_multiplier_to_adder_7__5_
*348 from_multiplier_to_adder_7__4_
*349 from_multiplier_to_adder_7__3_
*350 from_multiplier_to_adder_7__2_
*351 from_multiplier_to_adder_7__1_
*352 from_multiplier_to_adder_7__0_
*353 from_multiplier_to_adder_6__7_
*354 from_multiplier_to_adder_6__5_
*355 from_multiplier_to_adder_6__4_
*356 from_multiplier_to_adder_6__3_
*357 from_multiplier_to_adder_6__2_
*358 from_multiplier_to_adder_6__1_
*359 from_multiplier_to_adder_6__0_
*360 from_multiplier_to_adder_5__7_
*361 from_multiplier_to_adder_5__5_
*362 from_multiplier_to_adder_5__4_
*363 from_multiplier_to_adder_5__3_
*364 from_multiplier_to_adder_5__2_
*365 from_multiplier_to_adder_5__1_
*366 from_multiplier_to_adder_5__0_
*367 from_multiplier_to_adder_4__7_
*368 from_multiplier_to_adder_4__5_
*369 from_multiplier_to_adder_4__4_
*370 from_multiplier_to_adder_4__3_
*371 from_multiplier_to_adder_4__2_
*372 from_multiplier_to_adder_4__1_
*373 from_multiplier_to_adder_4__0_
*374 from_multiplier_to_adder_3__7_
*375 from_multiplier_to_adder_3__5_
*376 from_multiplier_to_adder_3__4_
*377 from_multiplier_to_adder_3__3_
*378 from_multiplier_to_adder_3__2_
*379 from_multiplier_to_adder_3__1_
*380 from_multiplier_to_adder_3__0_
*381 from_multiplier_to_adder_2__7_
*382 from_multiplier_to_adder_2__5_
*383 from_multiplier_to_adder_2__4_
*384 from_multiplier_to_adder_2__3_
*385 from_multiplier_to_adder_2__2_
*386 from_multiplier_to_adder_2__1_
*387 from_multiplier_to_adder_2__0_
*388 from_multiplier_to_adder_1__7_
*389 from_multiplier_to_adder_1__5_
*390 from_multiplier_to_adder_1__4_
*391 from_multiplier_to_adder_1__3_
*392 from_multiplier_to_adder_1__2_
*393 from_multiplier_to_adder_1__1_
*394 from_multiplier_to_adder_1__0_
*395 from_multiplier_to_adder_0__7_
*396 from_multiplier_to_adder_0__5_
*397 from_multiplier_to_adder_0__4_
*398 from_multiplier_to_adder_0__3_
*399 from_multiplier_to_adder_0__2_
*400 from_multiplier_to_adder_0__1_
*401 from_multiplier_to_adder_0__0_
*402 evaluated_VOUT
*403 i_regIN_DIN_n18
*404 i_regIN_DIN_n17
*405 i_regIN_DIN_n16
*406 i_regIN_DIN_n15
*407 i_regIN_DIN_n14
*408 i_regIN_DIN_n13
*409 i_regIN_DIN_n12
*410 i_regIN_DIN_n11
*411 i_regIN_DIN_n10
*412 i_ffIN_VIN_n2
*413 i_regIN_coeff_0_n45
*414 i_regIN_coeff_0_n44
*415 i_regIN_coeff_0_n43
*416 i_regIN_coeff_0_n42
*417 i_regIN_coeff_0_n41
*418 i_regIN_coeff_0_n40
*419 i_regIN_coeff_0_n39
*420 i_regIN_coeff_0_n38
*421 i_regIN_coeff_0_n37
*422 i_regIN_coeff_1_n45
*423 i_regIN_coeff_1_n44
*424 i_regIN_coeff_1_n43
*425 i_regIN_coeff_1_n42
*426 i_regIN_coeff_1_n41
*427 i_regIN_coeff_1_n40
*428 i_regIN_coeff_1_n39
*429 i_regIN_coeff_1_n38
*430 i_regIN_coeff_1_n37
*431 i_regIN_coeff_2_n45
*432 i_regIN_coeff_2_n44
*433 i_regIN_coeff_2_n43
*434 i_regIN_coeff_2_n42
*435 i_regIN_coeff_2_n41
*436 i_regIN_coeff_2_n40
*437 i_regIN_coeff_2_n39
*438 i_regIN_coeff_2_n38
*439 i_regIN_coeff_2_n37
*440 i_regIN_coeff_3_n45
*441 i_regIN_coeff_3_n44
*442 i_regIN_coeff_3_n43
*443 i_regIN_coeff_3_n42
*444 i_regIN_coeff_3_n41
*445 i_regIN_coeff_3_n40
*446 i_regIN_coeff_3_n39
*447 i_regIN_coeff_3_n38
*448 i_regIN_coeff_3_n37
*449 i_regIN_coeff_4_n45
*450 i_regIN_coeff_4_n44
*451 i_regIN_coeff_4_n43
*452 i_regIN_coeff_4_n42
*453 i_regIN_coeff_4_n41
*454 i_regIN_coeff_4_n40
*455 i_regIN_coeff_4_n39
*456 i_regIN_coeff_4_n38
*457 i_regIN_coeff_4_n37
*458 i_regIN_coeff_5_n45
*459 i_regIN_coeff_5_n44
*460 i_regIN_coeff_5_n43
*461 i_regIN_coeff_5_n42
*462 i_regIN_coeff_5_n41
*463 i_regIN_coeff_5_n40
*464 i_regIN_coeff_5_n39
*465 i_regIN_coeff_5_n38
*466 i_regIN_coeff_5_n37
*467 i_regIN_coeff_6_n45
*468 i_regIN_coeff_6_n44
*469 i_regIN_coeff_6_n43
*470 i_regIN_coeff_6_n42
*471 i_regIN_coeff_6_n41
*472 i_regIN_coeff_6_n40
*473 i_regIN_coeff_6_n39
*474 i_regIN_coeff_6_n38
*475 i_regIN_coeff_6_n37
*476 i_regIN_coeff_7_n45
*477 i_regIN_coeff_7_n44
*478 i_regIN_coeff_7_n43
*479 i_regIN_coeff_7_n42
*480 i_regIN_coeff_7_n41
*481 i_regIN_coeff_7_n40
*482 i_regIN_coeff_7_n39
*483 i_regIN_coeff_7_n38
*484 i_regIN_coeff_7_n37
*485 i_regIN_coeff_8_n45
*486 i_regIN_coeff_8_n44
*487 i_regIN_coeff_8_n43
*488 i_regIN_coeff_8_n42
*489 i_regIN_coeff_8_n41
*490 i_regIN_coeff_8_n40
*491 i_regIN_coeff_8_n39
*492 i_regIN_coeff_8_n38
*493 i_regIN_coeff_8_n37
*494 i_regIN_coeff_9_n45
*495 i_regIN_coeff_9_n44
*496 i_regIN_coeff_9_n43
*497 i_regIN_coeff_9_n42
*498 i_regIN_coeff_9_n41
*499 i_regIN_coeff_9_n40
*500 i_regIN_coeff_9_n39
*501 i_regIN_coeff_9_n38
*502 i_regIN_coeff_9_n37
*503 i_regIN_coeff_10_n45
*504 i_regIN_coeff_10_n44
*505 i_regIN_coeff_10_n43
*506 i_regIN_coeff_10_n42
*507 i_regIN_coeff_10_n41
*508 i_regIN_coeff_10_n40
*509 i_regIN_coeff_10_n39
*510 i_regIN_coeff_10_n38
*511 i_regIN_coeff_10_n37
*512 i_reg_DL_0_n30
*513 i_reg_DL_0_n29
*514 i_reg_DL_0_n28
*515 i_reg_DL_0_n27
*516 i_reg_DL_0_n26
*517 i_reg_DL_0_n25
*518 i_reg_DL_0_n24
*519 i_reg_DL_0_n23
*520 i_reg_DL_0_n22
*521 i_reg_DL_0_n21
*522 i_reg_DL_0_n20
*523 i_reg_DL_0_n19
*524 i_reg_DL_0_n18
*525 i_reg_DL_0_n17
*526 i_reg_DL_0_n16
*527 i_reg_DL_0_n15
*528 i_reg_DL_0_n14
*529 i_reg_DL_0_n13
*530 i_reg_DL_0_n12
*531 i_reg_DL_0_n11
*532 i_reg_DL_0_n10
*533 i_reg_DL_0_n9
*534 i_reg_DL_0_n8
*535 i_reg_DL_0_n7
*536 i_reg_DL_0_n6
*537 i_reg_DL_0_n5
*538 i_reg_DL_0_n4
*539 i_reg_DL_0_n3
*540 i_reg_DL_0_n2
*541 i_reg_DL_0_n1
*542 i_reg_DL_1_n62
*543 i_reg_DL_1_n61
*544 i_reg_DL_1_n60
*545 i_reg_DL_1_n59
*546 i_reg_DL_1_n58
*547 i_reg_DL_1_n57
*548 i_reg_DL_1_n56
*549 i_reg_DL_1_n55
*550 i_reg_DL_1_n54
*551 i_reg_DL_1_n53
*552 i_reg_DL_1_n52
*553 i_reg_DL_1_n51
*554 i_reg_DL_1_n50
*555 i_reg_DL_1_n49
*556 i_reg_DL_1_n48
*557 i_reg_DL_1_n47
*558 i_reg_DL_1_n46
*559 i_reg_DL_1_n45
*560 i_reg_DL_1_n44
*561 i_reg_DL_1_n43
*562 i_reg_DL_1_n42
*563 i_reg_DL_1_n41
*564 i_reg_DL_1_n40
*565 i_reg_DL_1_n39
*566 i_reg_DL_1_n38
*567 i_reg_DL_1_n37
*568 i_reg_DL_1_n36
*569 i_reg_DL_1_n35
*570 i_reg_DL_1_n34
*571 i_reg_DL_1_n33
*572 i_reg_DL_2_n62
*573 i_reg_DL_2_n61
*574 i_reg_DL_2_n60
*575 i_reg_DL_2_n59
*576 i_reg_DL_2_n58
*577 i_reg_DL_2_n57
*578 i_reg_DL_2_n56
*579 i_reg_DL_2_n55
*580 i_reg_DL_2_n54
*581 i_reg_DL_2_n53
*582 i_reg_DL_2_n52
*583 i_reg_DL_2_n51
*584 i_reg_DL_2_n50
*585 i_reg_DL_2_n49
*586 i_reg_DL_2_n48
*587 i_reg_DL_2_n47
*588 i_reg_DL_2_n46
*589 i_reg_DL_2_n45
*590 i_reg_DL_2_n44
*591 i_reg_DL_2_n43
*592 i_reg_DL_2_n42
*593 i_reg_DL_2_n41
*594 i_reg_DL_2_n40
*595 i_reg_DL_2_n39
*596 i_reg_DL_2_n38
*597 i_reg_DL_2_n37
*598 i_reg_DL_2_n36
*599 i_reg_DL_2_n35
*600 i_reg_DL_2_n34
*601 i_reg_DL_2_n33
*602 i_reg_DL_3_n62
*603 i_reg_DL_3_n61
*604 i_reg_DL_3_n60
*605 i_reg_DL_3_n59
*606 i_reg_DL_3_n58
*607 i_reg_DL_3_n57
*608 i_reg_DL_3_n56
*609 i_reg_DL_3_n55
*610 i_reg_DL_3_n54
*611 i_reg_DL_3_n53
*612 i_reg_DL_3_n52
*613 i_reg_DL_3_n51
*614 i_reg_DL_3_n50
*615 i_reg_DL_3_n49
*616 i_reg_DL_3_n48
*617 i_reg_DL_3_n47
*618 i_reg_DL_3_n46
*619 i_reg_DL_3_n45
*620 i_reg_DL_3_n44
*621 i_reg_DL_3_n43
*622 i_reg_DL_3_n42
*623 i_reg_DL_3_n41
*624 i_reg_DL_3_n40
*625 i_reg_DL_3_n39
*626 i_reg_DL_3_n38
*627 i_reg_DL_3_n37
*628 i_reg_DL_3_n36
*629 i_reg_DL_3_n35
*630 i_reg_DL_3_n34
*631 i_reg_DL_3_n33
*632 i_reg_DL_4_n62
*633 i_reg_DL_4_n61
*634 i_reg_DL_4_n60
*635 i_reg_DL_4_n59
*636 i_reg_DL_4_n58
*637 i_reg_DL_4_n57
*638 i_reg_DL_4_n56
*639 i_reg_DL_4_n55
*640 i_reg_DL_4_n54
*641 i_reg_DL_4_n53
*642 i_reg_DL_4_n52
*643 i_reg_DL_4_n51
*644 i_reg_DL_4_n50
*645 i_reg_DL_4_n49
*646 i_reg_DL_4_n48
*647 i_reg_DL_4_n47
*648 i_reg_DL_4_n46
*649 i_reg_DL_4_n45
*650 i_reg_DL_4_n44
*651 i_reg_DL_4_n43
*652 i_reg_DL_4_n42
*653 i_reg_DL_4_n41
*654 i_reg_DL_4_n40
*655 i_reg_DL_4_n39
*656 i_reg_DL_4_n38
*657 i_reg_DL_4_n37
*658 i_reg_DL_4_n36
*659 i_reg_DL_4_n35
*660 i_reg_DL_4_n34
*661 i_reg_DL_4_n33
*662 i_reg_DL_5_n62
*663 i_reg_DL_5_n61
*664 i_reg_DL_5_n60
*665 i_reg_DL_5_n59
*666 i_reg_DL_5_n58
*667 i_reg_DL_5_n57
*668 i_reg_DL_5_n56
*669 i_reg_DL_5_n55
*670 i_reg_DL_5_n54
*671 i_reg_DL_5_n53
*672 i_reg_DL_5_n52
*673 i_reg_DL_5_n51
*674 i_reg_DL_5_n50
*675 i_reg_DL_5_n49
*676 i_reg_DL_5_n48
*677 i_reg_DL_5_n47
*678 i_reg_DL_5_n46
*679 i_reg_DL_5_n45
*680 i_reg_DL_5_n44
*681 i_reg_DL_5_n43
*682 i_reg_DL_5_n42
*683 i_reg_DL_5_n41
*684 i_reg_DL_5_n40
*685 i_reg_DL_5_n39
*686 i_reg_DL_5_n38
*687 i_reg_DL_5_n37
*688 i_reg_DL_5_n36
*689 i_reg_DL_5_n35
*690 i_reg_DL_5_n34
*691 i_reg_DL_5_n33
*692 i_reg_DL_6_n62
*693 i_reg_DL_6_n61
*694 i_reg_DL_6_n60
*695 i_reg_DL_6_n59
*696 i_reg_DL_6_n58
*697 i_reg_DL_6_n57
*698 i_reg_DL_6_n56
*699 i_reg_DL_6_n55
*700 i_reg_DL_6_n54
*701 i_reg_DL_6_n53
*702 i_reg_DL_6_n52
*703 i_reg_DL_6_n51
*704 i_reg_DL_6_n50
*705 i_reg_DL_6_n49
*706 i_reg_DL_6_n48
*707 i_reg_DL_6_n47
*708 i_reg_DL_6_n46
*709 i_reg_DL_6_n45
*710 i_reg_DL_6_n44
*711 i_reg_DL_6_n43
*712 i_reg_DL_6_n42
*713 i_reg_DL_6_n41
*714 i_reg_DL_6_n40
*715 i_reg_DL_6_n39
*716 i_reg_DL_6_n38
*717 i_reg_DL_6_n37
*718 i_reg_DL_6_n36
*719 i_reg_DL_6_n35
*720 i_reg_DL_6_n34
*721 i_reg_DL_6_n33
*722 i_reg_DL_7_n62
*723 i_reg_DL_7_n61
*724 i_reg_DL_7_n60
*725 i_reg_DL_7_n59
*726 i_reg_DL_7_n58
*727 i_reg_DL_7_n57
*728 i_reg_DL_7_n56
*729 i_reg_DL_7_n55
*730 i_reg_DL_7_n54
*731 i_reg_DL_7_n53
*732 i_reg_DL_7_n52
*733 i_reg_DL_7_n51
*734 i_reg_DL_7_n50
*735 i_reg_DL_7_n49
*736 i_reg_DL_7_n48
*737 i_reg_DL_7_n47
*738 i_reg_DL_7_n46
*739 i_reg_DL_7_n45
*740 i_reg_DL_7_n44
*741 i_reg_DL_7_n43
*742 i_reg_DL_7_n42
*743 i_reg_DL_7_n41
*744 i_reg_DL_7_n40
*745 i_reg_DL_7_n39
*746 i_reg_DL_7_n38
*747 i_reg_DL_7_n37
*748 i_reg_DL_7_n36
*749 i_reg_DL_7_n35
*750 i_reg_DL_7_n34
*751 i_reg_DL_7_n33
*752 i_reg_DL_8_n62
*753 i_reg_DL_8_n61
*754 i_reg_DL_8_n60
*755 i_reg_DL_8_n59
*756 i_reg_DL_8_n58
*757 i_reg_DL_8_n57
*758 i_reg_DL_8_n56
*759 i_reg_DL_8_n55
*760 i_reg_DL_8_n54
*761 i_reg_DL_8_n53
*762 i_reg_DL_8_n52
*763 i_reg_DL_8_n51
*764 i_reg_DL_8_n50
*765 i_reg_DL_8_n49
*766 i_reg_DL_8_n48
*767 i_reg_DL_8_n47
*768 i_reg_DL_8_n46
*769 i_reg_DL_8_n45
*770 i_reg_DL_8_n44
*771 i_reg_DL_8_n43
*772 i_reg_DL_8_n42
*773 i_reg_DL_8_n41
*774 i_reg_DL_8_n40
*775 i_reg_DL_8_n39
*776 i_reg_DL_8_n38
*777 i_reg_DL_8_n37
*778 i_reg_DL_8_n36
*779 i_reg_DL_8_n35
*780 i_reg_DL_8_n34
*781 i_reg_DL_8_n33
*782 i_reg_DL_9_n62
*783 i_reg_DL_9_n61
*784 i_reg_DL_9_n60
*785 i_reg_DL_9_n59
*786 i_reg_DL_9_n58
*787 i_reg_DL_9_n57
*788 i_reg_DL_9_n56
*789 i_reg_DL_9_n55
*790 i_reg_DL_9_n54
*791 i_reg_DL_9_n53
*792 i_reg_DL_9_n52
*793 i_reg_DL_9_n51
*794 i_reg_DL_9_n50
*795 i_reg_DL_9_n49
*796 i_reg_DL_9_n48
*797 i_reg_DL_9_n47
*798 i_reg_DL_9_n46
*799 i_reg_DL_9_n45
*800 i_reg_DL_9_n44
*801 i_reg_DL_9_n43
*802 i_reg_DL_9_n42
*803 i_reg_DL_9_n41
*804 i_reg_DL_9_n40
*805 i_reg_DL_9_n39
*806 i_reg_DL_9_n38
*807 i_reg_DL_9_n37
*808 i_reg_DL_9_n36
*809 i_reg_DL_9_n35
*810 i_reg_DL_9_n34
*811 i_reg_DL_9_n33
*812 i_mult_0_MULTIPLIER_OUT_PRODUCT_0_
*813 i_mult_0_mult_26_n375
*814 i_mult_0_mult_26_n374
*815 i_mult_0_mult_26_n373
*816 i_mult_0_mult_26_n372
*817 i_mult_0_mult_26_n371
*818 i_mult_0_mult_26_n370
*819 i_mult_0_mult_26_n369
*820 i_mult_0_mult_26_n368
*821 i_mult_0_mult_26_n367
*822 i_mult_0_mult_26_n366
*823 i_mult_0_mult_26_n365
*824 i_mult_0_mult_26_n364
*825 i_mult_0_mult_26_n363
*826 i_mult_0_mult_26_n362
*827 i_mult_0_mult_26_n361
*828 i_mult_0_mult_26_n360
*829 i_mult_0_mult_26_n359
*830 i_mult_0_mult_26_n358
*831 i_mult_0_mult_26_n357
*832 i_mult_0_mult_26_n356
*833 i_mult_0_mult_26_n355
*834 i_mult_0_mult_26_n354
*835 i_mult_0_mult_26_n353
*836 i_mult_0_mult_26_n352
*837 i_mult_0_mult_26_n351
*838 i_mult_0_mult_26_n350
*839 i_mult_0_mult_26_n349
*840 i_mult_0_mult_26_n348
*841 i_mult_0_mult_26_n347
*842 i_mult_0_mult_26_n346
*843 i_mult_0_mult_26_n345
*844 i_mult_0_mult_26_n344
*845 i_mult_0_mult_26_n343
*846 i_mult_0_mult_26_n342
*847 i_mult_0_mult_26_n341
*848 i_mult_0_mult_26_n340
*849 i_mult_0_mult_26_n339
*850 i_mult_0_mult_26_n338
*851 i_mult_0_mult_26_n337
*852 i_mult_0_mult_26_n336
*853 i_mult_0_mult_26_n335
*854 i_mult_0_mult_26_n334
*855 i_mult_0_mult_26_n333
*856 i_mult_0_mult_26_n332
*857 i_mult_0_mult_26_n331
*858 i_mult_0_mult_26_n330
*859 i_mult_0_mult_26_n329
*860 i_mult_0_mult_26_n328
*861 i_mult_0_mult_26_n327
*862 i_mult_0_mult_26_n326
*863 i_mult_0_mult_26_n325
*864 i_mult_0_mult_26_n324
*865 i_mult_0_mult_26_n323
*866 i_mult_0_mult_26_n322
*867 i_mult_0_mult_26_n321
*868 i_mult_0_mult_26_n320
*869 i_mult_0_mult_26_n319
*870 i_mult_0_mult_26_n318
*871 i_mult_0_mult_26_n317
*872 i_mult_0_mult_26_n316
*873 i_mult_0_mult_26_n315
*874 i_mult_0_mult_26_n314
*875 i_mult_0_mult_26_n313
*876 i_mult_0_mult_26_n312
*877 i_mult_0_mult_26_n311
*878 i_mult_0_mult_26_n310
*879 i_mult_0_mult_26_n309
*880 i_mult_0_mult_26_n308
*881 i_mult_0_mult_26_n307
*882 i_mult_0_mult_26_n306
*883 i_mult_0_mult_26_n305
*884 i_mult_0_mult_26_n304
*885 i_mult_0_mult_26_n303
*886 i_mult_0_mult_26_n302
*887 i_mult_0_mult_26_n301
*888 i_mult_0_mult_26_n300
*889 i_mult_0_mult_26_n299
*890 i_mult_0_mult_26_n298
*891 i_mult_0_mult_26_n297
*892 i_mult_0_mult_26_n296
*893 i_mult_0_mult_26_n295
*894 i_mult_0_mult_26_n294
*895 i_mult_0_mult_26_n293
*896 i_mult_0_mult_26_n292
*897 i_mult_0_mult_26_n291
*898 i_mult_0_mult_26_n290
*899 i_mult_0_mult_26_n289
*900 i_mult_0_mult_26_n288
*901 i_mult_0_mult_26_n287
*902 i_mult_0_mult_26_n286
*903 i_mult_0_mult_26_n285
*904 i_mult_0_mult_26_n284
*905 i_mult_0_mult_26_n283
*906 i_mult_0_mult_26_n282
*907 i_mult_0_mult_26_n281
*908 i_mult_0_mult_26_n280
*909 i_mult_0_mult_26_n279
*910 i_mult_0_mult_26_n278
*911 i_mult_0_mult_26_n277
*912 i_mult_0_mult_26_n141
*913 i_mult_0_mult_26_n140
*914 i_mult_0_mult_26_n139
*915 i_mult_0_mult_26_n138
*916 i_mult_0_mult_26_n137
*917 i_mult_0_mult_26_n136
*918 i_mult_0_mult_26_n133
*919 i_mult_0_mult_26_n132
*920 i_mult_0_mult_26_n131
*921 i_mult_0_mult_26_n130
*922 i_mult_0_mult_26_n129
*923 i_mult_0_mult_26_n128
*924 i_mult_0_mult_26_n127
*925 i_mult_0_mult_26_n125
*926 i_mult_0_mult_26_n124
*927 i_mult_0_mult_26_n123
*928 i_mult_0_mult_26_n122
*929 i_mult_0_mult_26_n121
*930 i_mult_0_mult_26_n120
*931 i_mult_0_mult_26_n119
*932 i_mult_0_mult_26_n118
*933 i_mult_0_mult_26_n116
*934 i_mult_0_mult_26_n115
*935 i_mult_0_mult_26_n114
*936 i_mult_0_mult_26_n112
*937 i_mult_0_mult_26_n111
*938 i_mult_0_mult_26_n110
*939 i_mult_0_mult_26_n109
*940 i_mult_0_mult_26_n107
*941 i_mult_0_mult_26_n105
*942 i_mult_0_mult_26_n104
*943 i_mult_0_mult_26_n103
*944 i_mult_0_mult_26_n102
*945 i_mult_0_mult_26_n101
*946 i_mult_0_mult_26_n100
*947 i_mult_0_mult_26_n96
*948 i_mult_0_mult_26_n95
*949 i_mult_0_mult_26_n94
*950 i_mult_0_mult_26_n79
*951 i_mult_0_mult_26_n78
*952 i_mult_0_mult_26_n77
*953 i_mult_0_mult_26_n76
*954 i_mult_0_mult_26_n75
*955 i_mult_0_mult_26_n74
*956 i_mult_0_mult_26_n73
*957 i_mult_0_mult_26_n72
*958 i_mult_0_mult_26_n71
*959 i_mult_0_mult_26_n70
*960 i_mult_0_mult_26_n69
*961 i_mult_0_mult_26_n68
*962 i_mult_0_mult_26_n67
*963 i_mult_0_mult_26_n66
*964 i_mult_0_mult_26_n65
*965 i_mult_0_mult_26_n64
*966 i_mult_0_mult_26_n63
*967 i_mult_0_mult_26_n62
*968 i_mult_0_mult_26_n61
*969 i_mult_0_mult_26_n60
*970 i_mult_0_mult_26_n59
*971 i_mult_0_mult_26_n58
*972 i_mult_0_mult_26_n57
*973 i_mult_0_mult_26_n56
*974 i_mult_0_mult_26_n55
*975 i_mult_0_mult_26_n54
*976 i_mult_0_mult_26_n53
*977 i_mult_0_mult_26_n52
*978 i_mult_0_mult_26_n51
*979 i_mult_0_mult_26_n50
*980 i_mult_0_mult_26_n49
*981 i_mult_0_mult_26_n48
*982 i_mult_0_mult_26_n46
*983 i_mult_0_mult_26_n45
*984 i_mult_0_mult_26_n44
*985 i_mult_0_mult_26_n43
*986 i_mult_0_mult_26_n42
*987 i_mult_0_mult_26_n41
*988 i_mult_0_mult_26_n40
*989 i_mult_0_mult_26_n39
*990 i_mult_0_mult_26_n38
*991 i_mult_0_mult_26_n37
*992 i_mult_0_mult_26_n36
*993 i_mult_0_mult_26_n35
*994 i_mult_0_mult_26_n34
*995 i_mult_0_mult_26_n32
*996 i_mult_0_mult_26_n31
*997 i_mult_0_mult_26_n30
*998 i_mult_0_mult_26_n29
*999 i_mult_0_mult_26_n28
*1000 i_mult_0_mult_26_n27
*1001 i_mult_0_mult_26_n26
*1002 i_mult_0_mult_26_n25
*1003 i_mult_0_mult_26_n24
*1004 i_mult_0_mult_26_n22
*1005 i_mult_0_mult_26_n21
*1006 i_mult_0_mult_26_n20
*1007 i_mult_0_mult_26_n19
*1008 i_mult_0_mult_26_n18
*1009 i_mult_0_mult_26_n7
*1010 i_mult_0_mult_26_n6
*1011 i_mult_0_mult_26_n5
*1012 i_mult_0_mult_26_n4
*1013 i_mult_0_mult_26_n3
*1014 i_mult_0_mult_26_n2
*1015 i_mult_1_MULTIPLIER_OUT_PRODUCT_0_
*1016 i_mult_1_mult_26_n375
*1017 i_mult_1_mult_26_n374
*1018 i_mult_1_mult_26_n373
*1019 i_mult_1_mult_26_n372
*1020 i_mult_1_mult_26_n371
*1021 i_mult_1_mult_26_n370
*1022 i_mult_1_mult_26_n369
*1023 i_mult_1_mult_26_n368
*1024 i_mult_1_mult_26_n367
*1025 i_mult_1_mult_26_n366
*1026 i_mult_1_mult_26_n365
*1027 i_mult_1_mult_26_n364
*1028 i_mult_1_mult_26_n363
*1029 i_mult_1_mult_26_n362
*1030 i_mult_1_mult_26_n361
*1031 i_mult_1_mult_26_n360
*1032 i_mult_1_mult_26_n359
*1033 i_mult_1_mult_26_n358
*1034 i_mult_1_mult_26_n357
*1035 i_mult_1_mult_26_n356
*1036 i_mult_1_mult_26_n355
*1037 i_mult_1_mult_26_n354
*1038 i_mult_1_mult_26_n353
*1039 i_mult_1_mult_26_n352
*1040 i_mult_1_mult_26_n351
*1041 i_mult_1_mult_26_n350
*1042 i_mult_1_mult_26_n349
*1043 i_mult_1_mult_26_n348
*1044 i_mult_1_mult_26_n347
*1045 i_mult_1_mult_26_n346
*1046 i_mult_1_mult_26_n345
*1047 i_mult_1_mult_26_n344
*1048 i_mult_1_mult_26_n343
*1049 i_mult_1_mult_26_n342
*1050 i_mult_1_mult_26_n341
*1051 i_mult_1_mult_26_n340
*1052 i_mult_1_mult_26_n339
*1053 i_mult_1_mult_26_n338
*1054 i_mult_1_mult_26_n337
*1055 i_mult_1_mult_26_n336
*1056 i_mult_1_mult_26_n335
*1057 i_mult_1_mult_26_n334
*1058 i_mult_1_mult_26_n333
*1059 i_mult_1_mult_26_n332
*1060 i_mult_1_mult_26_n331
*1061 i_mult_1_mult_26_n330
*1062 i_mult_1_mult_26_n329
*1063 i_mult_1_mult_26_n328
*1064 i_mult_1_mult_26_n327
*1065 i_mult_1_mult_26_n326
*1066 i_mult_1_mult_26_n325
*1067 i_mult_1_mult_26_n324
*1068 i_mult_1_mult_26_n323
*1069 i_mult_1_mult_26_n322
*1070 i_mult_1_mult_26_n321
*1071 i_mult_1_mult_26_n320
*1072 i_mult_1_mult_26_n319
*1073 i_mult_1_mult_26_n318
*1074 i_mult_1_mult_26_n317
*1075 i_mult_1_mult_26_n316
*1076 i_mult_1_mult_26_n315
*1077 i_mult_1_mult_26_n314
*1078 i_mult_1_mult_26_n313
*1079 i_mult_1_mult_26_n312
*1080 i_mult_1_mult_26_n311
*1081 i_mult_1_mult_26_n310
*1082 i_mult_1_mult_26_n309
*1083 i_mult_1_mult_26_n308
*1084 i_mult_1_mult_26_n307
*1085 i_mult_1_mult_26_n306
*1086 i_mult_1_mult_26_n305
*1087 i_mult_1_mult_26_n304
*1088 i_mult_1_mult_26_n303
*1089 i_mult_1_mult_26_n302
*1090 i_mult_1_mult_26_n301
*1091 i_mult_1_mult_26_n300
*1092 i_mult_1_mult_26_n299
*1093 i_mult_1_mult_26_n298
*1094 i_mult_1_mult_26_n297
*1095 i_mult_1_mult_26_n296
*1096 i_mult_1_mult_26_n295
*1097 i_mult_1_mult_26_n294
*1098 i_mult_1_mult_26_n293
*1099 i_mult_1_mult_26_n292
*1100 i_mult_1_mult_26_n291
*1101 i_mult_1_mult_26_n290
*1102 i_mult_1_mult_26_n289
*1103 i_mult_1_mult_26_n288
*1104 i_mult_1_mult_26_n287
*1105 i_mult_1_mult_26_n286
*1106 i_mult_1_mult_26_n285
*1107 i_mult_1_mult_26_n284
*1108 i_mult_1_mult_26_n283
*1109 i_mult_1_mult_26_n282
*1110 i_mult_1_mult_26_n281
*1111 i_mult_1_mult_26_n280
*1112 i_mult_1_mult_26_n279
*1113 i_mult_1_mult_26_n278
*1114 i_mult_1_mult_26_n277
*1115 i_mult_1_mult_26_n141
*1116 i_mult_1_mult_26_n140
*1117 i_mult_1_mult_26_n139
*1118 i_mult_1_mult_26_n138
*1119 i_mult_1_mult_26_n137
*1120 i_mult_1_mult_26_n136
*1121 i_mult_1_mult_26_n133
*1122 i_mult_1_mult_26_n132
*1123 i_mult_1_mult_26_n131
*1124 i_mult_1_mult_26_n130
*1125 i_mult_1_mult_26_n129
*1126 i_mult_1_mult_26_n128
*1127 i_mult_1_mult_26_n127
*1128 i_mult_1_mult_26_n125
*1129 i_mult_1_mult_26_n124
*1130 i_mult_1_mult_26_n123
*1131 i_mult_1_mult_26_n122
*1132 i_mult_1_mult_26_n121
*1133 i_mult_1_mult_26_n120
*1134 i_mult_1_mult_26_n119
*1135 i_mult_1_mult_26_n118
*1136 i_mult_1_mult_26_n116
*1137 i_mult_1_mult_26_n115
*1138 i_mult_1_mult_26_n114
*1139 i_mult_1_mult_26_n112
*1140 i_mult_1_mult_26_n111
*1141 i_mult_1_mult_26_n110
*1142 i_mult_1_mult_26_n109
*1143 i_mult_1_mult_26_n107
*1144 i_mult_1_mult_26_n105
*1145 i_mult_1_mult_26_n104
*1146 i_mult_1_mult_26_n103
*1147 i_mult_1_mult_26_n102
*1148 i_mult_1_mult_26_n101
*1149 i_mult_1_mult_26_n100
*1150 i_mult_1_mult_26_n96
*1151 i_mult_1_mult_26_n95
*1152 i_mult_1_mult_26_n94
*1153 i_mult_1_mult_26_n79
*1154 i_mult_1_mult_26_n78
*1155 i_mult_1_mult_26_n77
*1156 i_mult_1_mult_26_n76
*1157 i_mult_1_mult_26_n75
*1158 i_mult_1_mult_26_n74
*1159 i_mult_1_mult_26_n73
*1160 i_mult_1_mult_26_n72
*1161 i_mult_1_mult_26_n71
*1162 i_mult_1_mult_26_n70
*1163 i_mult_1_mult_26_n69
*1164 i_mult_1_mult_26_n68
*1165 i_mult_1_mult_26_n67
*1166 i_mult_1_mult_26_n66
*1167 i_mult_1_mult_26_n65
*1168 i_mult_1_mult_26_n64
*1169 i_mult_1_mult_26_n63
*1170 i_mult_1_mult_26_n62
*1171 i_mult_1_mult_26_n61
*1172 i_mult_1_mult_26_n60
*1173 i_mult_1_mult_26_n59
*1174 i_mult_1_mult_26_n58
*1175 i_mult_1_mult_26_n57
*1176 i_mult_1_mult_26_n56
*1177 i_mult_1_mult_26_n55
*1178 i_mult_1_mult_26_n54
*1179 i_mult_1_mult_26_n53
*1180 i_mult_1_mult_26_n52
*1181 i_mult_1_mult_26_n51
*1182 i_mult_1_mult_26_n50
*1183 i_mult_1_mult_26_n49
*1184 i_mult_1_mult_26_n48
*1185 i_mult_1_mult_26_n46
*1186 i_mult_1_mult_26_n45
*1187 i_mult_1_mult_26_n44
*1188 i_mult_1_mult_26_n43
*1189 i_mult_1_mult_26_n42
*1190 i_mult_1_mult_26_n41
*1191 i_mult_1_mult_26_n40
*1192 i_mult_1_mult_26_n39
*1193 i_mult_1_mult_26_n38
*1194 i_mult_1_mult_26_n37
*1195 i_mult_1_mult_26_n36
*1196 i_mult_1_mult_26_n35
*1197 i_mult_1_mult_26_n34
*1198 i_mult_1_mult_26_n32
*1199 i_mult_1_mult_26_n31
*1200 i_mult_1_mult_26_n30
*1201 i_mult_1_mult_26_n29
*1202 i_mult_1_mult_26_n28
*1203 i_mult_1_mult_26_n27
*1204 i_mult_1_mult_26_n26
*1205 i_mult_1_mult_26_n25
*1206 i_mult_1_mult_26_n24
*1207 i_mult_1_mult_26_n22
*1208 i_mult_1_mult_26_n21
*1209 i_mult_1_mult_26_n20
*1210 i_mult_1_mult_26_n19
*1211 i_mult_1_mult_26_n18
*1212 i_mult_1_mult_26_n7
*1213 i_mult_1_mult_26_n6
*1214 i_mult_1_mult_26_n5
*1215 i_mult_1_mult_26_n4
*1216 i_mult_1_mult_26_n3
*1217 i_mult_1_mult_26_n2
*1218 i_mult_2_MULTIPLIER_OUT_PRODUCT_0_
*1219 i_mult_2_mult_26_n375
*1220 i_mult_2_mult_26_n374
*1221 i_mult_2_mult_26_n373
*1222 i_mult_2_mult_26_n372
*1223 i_mult_2_mult_26_n371
*1224 i_mult_2_mult_26_n370
*1225 i_mult_2_mult_26_n369
*1226 i_mult_2_mult_26_n368
*1227 i_mult_2_mult_26_n367
*1228 i_mult_2_mult_26_n366
*1229 i_mult_2_mult_26_n365
*1230 i_mult_2_mult_26_n364
*1231 i_mult_2_mult_26_n363
*1232 i_mult_2_mult_26_n362
*1233 i_mult_2_mult_26_n361
*1234 i_mult_2_mult_26_n360
*1235 i_mult_2_mult_26_n359
*1236 i_mult_2_mult_26_n358
*1237 i_mult_2_mult_26_n357
*1238 i_mult_2_mult_26_n356
*1239 i_mult_2_mult_26_n355
*1240 i_mult_2_mult_26_n354
*1241 i_mult_2_mult_26_n353
*1242 i_mult_2_mult_26_n352
*1243 i_mult_2_mult_26_n351
*1244 i_mult_2_mult_26_n350
*1245 i_mult_2_mult_26_n349
*1246 i_mult_2_mult_26_n348
*1247 i_mult_2_mult_26_n347
*1248 i_mult_2_mult_26_n346
*1249 i_mult_2_mult_26_n345
*1250 i_mult_2_mult_26_n344
*1251 i_mult_2_mult_26_n343
*1252 i_mult_2_mult_26_n342
*1253 i_mult_2_mult_26_n341
*1254 i_mult_2_mult_26_n340
*1255 i_mult_2_mult_26_n339
*1256 i_mult_2_mult_26_n338
*1257 i_mult_2_mult_26_n337
*1258 i_mult_2_mult_26_n336
*1259 i_mult_2_mult_26_n335
*1260 i_mult_2_mult_26_n334
*1261 i_mult_2_mult_26_n333
*1262 i_mult_2_mult_26_n332
*1263 i_mult_2_mult_26_n331
*1264 i_mult_2_mult_26_n330
*1265 i_mult_2_mult_26_n329
*1266 i_mult_2_mult_26_n328
*1267 i_mult_2_mult_26_n327
*1268 i_mult_2_mult_26_n326
*1269 i_mult_2_mult_26_n325
*1270 i_mult_2_mult_26_n324
*1271 i_mult_2_mult_26_n323
*1272 i_mult_2_mult_26_n322
*1273 i_mult_2_mult_26_n321
*1274 i_mult_2_mult_26_n320
*1275 i_mult_2_mult_26_n319
*1276 i_mult_2_mult_26_n318
*1277 i_mult_2_mult_26_n317