*SPEF "IEEE 1481-1998"
*DESIGN "filter"
*DATE "Wed Oct 27 18:39:37 2021"
*VENDOR "Cadence Design Systems, Inc."
*PROGRAM "Innovus"
*VERSION "17.11-s080_1"
*DESIGN_FLOW "COUPLING C" "PIN_CAP NONE" "NAME_SCOPE LOCAL"
*DIVIDER /
*DELIMITER :
*BUS_DELIMITER []
*T_UNIT 1 NS
*C_UNIT 1 PF
*R_UNIT 1 OHM
*L_UNIT 1 HENRY

// MMMC spef file for corner 'my_rc'

*NAME_MAP

*1 RST_n
*2 CLK
*3 b0[8]
*4 b0[7]
*5 b0[6]
*6 b0[5]
*7 b0[4]
*8 b0[3]
*9 b0[2]
*10 b0[1]
*11 b0[0]
*12 b1[8]
*13 b1[7]
*14 b1[6]
*15 b1[5]
*16 b1[4]
*17 b1[3]
*18 b1[2]
*19 b1[1]
*20 b1[0]
*21 b2[8]
*22 b2[7]
*23 b2[6]
*24 b2[5]
*25 b2[4]
*26 b2[3]
*27 b2[2]
*28 b2[1]
*29 b2[0]
*30 b3[8]
*31 b3[7]
*32 b3[6]
*33 b3[5]
*34 b3[4]
*35 b3[3]
*36 b3[2]
*37 b3[1]
*38 b3[0]
*39 b4[8]
*40 b4[7]
*41 b4[6]
*42 b4[5]
*43 b4[4]
*44 b4[3]
*45 b4[2]
*46 b4[1]
*47 b4[0]
*48 b5[8]
*49 b5[7]
*50 b5[6]
*51 b5[5]
*52 b5[4]
*53 b5[3]
*54 b5[2]
*55 b5[1]
*56 b5[0]
*57 b6[8]
*58 b6[7]
*59 b6[6]
*60 b6[5]
*61 b6[4]
*62 b6[3]
*63 b6[2]
*64 b6[1]
*65 b6[0]
*66 b7[8]
*67 b7[7]
*68 b7[6]
*69 b7[5]
*70 b7[4]
*71 b7[3]
*72 b7[2]
*73 b7[1]
*74 b7[0]
*75 b8[8]
*76 b8[7]
*77 b8[6]
*78 b8[5]
*79 b8[4]
*80 b8[3]
*81 b8[2]
*82 b8[1]
*83 b8[0]
*84 b9[8]
*85 b9[7]
*86 b9[6]
*87 b9[5]
*88 b9[4]
*89 b9[3]
*90 b9[2]
*91 b9[1]
*92 b9[0]
*93 b10[8]
*94 b10[7]
*95 b10[6]
*96 b10[5]
*97 b10[4]
*98 b10[3]
*99 b10[2]
*100 b10[1]
*101 b10[0]
*102 VIN
*103 DIN[8]
*104 DIN[7]
*105 DIN[6]
*106 DIN[5]
*107 DIN[4]
*108 DIN[3]
*109 DIN[2]
*110 DIN[1]
*111 DIN[0]
*112 VOUT
*113 DOUT[8]
*114 DOUT[7]
*115 DOUT[6]
*116 DOUT[5]
*117 DOUT[4]
*118 DOUT[3]
*119 DOUT[2]
*120 DOUT[1]
*121 DOUT[0]
*122 FE_OFN4_RST_n
*123 FE_OFN3_RST_n
*124 FE_OFN2_RST_n
*125 FE_OFN1_delayed_myfir_vin
*126 FE_OFN0_delayed_myfir_vin
*127 delayed_myfir_vin
*128 final_delay_myfir_vin
*129 mult_output_0__12_
*130 mult_output_0__11_
*131 mult_output_0__10_
*132 mult_output_0__9_
*133 mult_output_0__8_
*134 mult_output_0__7_
*135 mult_output_0__6_
*136 from_mult_to_adder_10__7_
*137 from_mult_to_adder_10__5_
*138 from_mult_to_adder_10__4_
*139 from_mult_to_adder_10__3_
*140 from_mult_to_adder_10__2_
*141 from_mult_to_adder_10__1_
*142 from_mult_to_adder_10__0_
*143 from_mult_to_adder_9__7_
*144 from_mult_to_adder_9__5_
*145 from_mult_to_adder_9__4_
*146 from_mult_to_adder_9__3_
*147 from_mult_to_adder_9__2_
*148 from_mult_to_adder_9__1_
*149 from_mult_to_adder_9__0_
*150 from_mult_to_adder_8__7_
*151 from_mult_to_adder_8__5_
*152 from_mult_to_adder_8__4_
*153 from_mult_to_adder_8__3_
*154 from_mult_to_adder_8__2_
*155 from_mult_to_adder_8__1_
*156 from_mult_to_adder_8__0_
*157 from_mult_to_adder_7__7_
*158 from_mult_to_adder_7__5_
*159 from_mult_to_adder_7__4_
*160 from_mult_to_adder_7__3_
*161 from_mult_to_adder_7__2_
*162 from_mult_to_adder_7__1_
*163 from_mult_to_adder_7__0_
*164 from_mult_to_adder_6__7_
*165 from_mult_to_adder_6__5_
*166 from_mult_to_adder_6__4_
*167 from_mult_to_adder_6__3_
*168 from_mult_to_adder_6__2_
*169 from_mult_to_adder_6__1_
*170 from_mult_to_adder_6__0_
*171 from_mult_to_adder_5__7_
*172 from_mult_to_adder_5__5_
*173 from_mult_to_adder_5__4_
*174 from_mult_to_adder_5__3_
*175 from_mult_to_adder_5__2_
*176 from_mult_to_adder_5__1_
*177 from_mult_to_adder_5__0_
*178 from_mult_to_adder_4__7_
*179 from_mult_to_adder_4__5_
*180 from_mult_to_adder_4__4_
*181 from_mult_to_adder_4__3_
*182 from_mult_to_adder_4__2_
*183 from_mult_to_adder_4__1_
*184 from_mult_to_adder_4__0_
*185 from_mult_to_adder_3__7_
*186 from_mult_to_adder_3__5_
*187 from_mult_to_adder_3__4_
*188 from_mult_to_adder_3__3_
*189 from_mult_to_adder_3__2_
*190 from_mult_to_adder_3__1_
*191 from_mult_to_adder_3__0_
*192 from_mult_to_adder_2__7_
*193 from_mult_to_adder_2__5_
*194 from_mult_to_adder_2__4_
*195 from_mult_to_adder_2__3_
*196 from_mult_to_adder_2__2_
*197 from_mult_to_adder_2__1_
*198 from_mult_to_adder_2__0_
*199 from_mult_to_adder_1__7_
*200 from_mult_to_adder_1__5_
*201 from_mult_to_adder_1__4_
*202 from_mult_to_adder_1__3_
*203 from_mult_to_adder_1__2_
*204 from_mult_to_adder_1__1_
*205 from_mult_to_adder_1__0_
*206 final_vout
*207 n26
*208 n27
*209 n28
*210 n29
*211 n30
*212 n31
*213 n32
*214 n33
*215 n34
*216 n35
*217 i_register_0_n18
*218 i_register_0_n17
*219 i_register_0_n16
*220 i_register_0_n15
*221 i_register_0_n14
*222 i_register_0_n13
*223 i_register_0_n12
*224 i_register_0_n11
*225 i_register_0_n10
*226 i_register_1_n45
*227 i_register_1_n44
*228 i_register_1_n43
*229 i_register_1_n42
*230 i_register_1_n41
*231 i_register_1_n40
*232 i_register_1_n39
*233 i_register_1_n38
*234 i_register_1_n37
*235 i_register_2_n45
*236 i_register_2_n44
*237 i_register_2_n43
*238 i_register_2_n42
*239 i_register_2_n41
*240 i_register_2_n40
*241 i_register_2_n39
*242 i_register_2_n38
*243 i_register_2_n37
*244 i_register_3_n45
*245 i_register_3_n44
*246 i_register_3_n43
*247 i_register_3_n42
*248 i_register_3_n41
*249 i_register_3_n40
*250 i_register_3_n39
*251 i_register_3_n38
*252 i_register_3_n37
*253 i_register_4_n45
*254 i_register_4_n44
*255 i_register_4_n43
*256 i_register_4_n42
*257 i_register_4_n41
*258 i_register_4_n40
*259 i_register_4_n39
*260 i_register_4_n38
*261 i_register_4_n37
*262 i_register_5_n45
*263 i_register_5_n44
*264 i_register_5_n43
*265 i_register_5_n42
*266 i_register_5_n41
*267 i_register_5_n40
*268 i_register_5_n39
*269 i_register_5_n38
*270 i_register_5_n37
*271 i_register_6_n45
*272 i_register_6_n44
*273 i_register_6_n43
*274 i_register_6_n42
*275 i_register_6_n41
*276 i_register_6_n40
*277 i_register_6_n39
*278 i_register_6_n38
*279 i_register_6_n37
*280 i_register_7_n45
*281 i_register_7_n44
*282 i_register_7_n43
*283 i_register_7_n42
*284 i_register_7_n41
*285 i_register_7_n40
*286 i_register_7_n39
*287 i_register_7_n38
*288 i_register_7_n37
*289 i_register_8_n45
*290 i_register_8_n44
*291 i_register_8_n43
*292 i_register_8_n42
*293 i_register_8_n41
*294 i_register_8_n40
*295 i_register_8_n39
*296 i_register_8_n38
*297 i_register_8_n37
*298 i_register_9_n45
*299 i_register_9_n44
*300 i_register_9_n43
*301 i_register_9_n42
*302 i_register_9_n41
*303 i_register_9_n40
*304 i_register_9_n39
*305 i_register_9_n38
*306 i_register_9_n37
*307 i_register_10_n45
*308 i_register_10_n44
*309 i_register_10_n43
*310 i_register_10_n42
*311 i_register_10_n41
*312 i_register_10_n40
*313 i_register_10_n39
*314 i_register_10_n38
*315 i_register_10_n37
*316 i_reg_in_data_n45
*317 i_reg_in_data_n44
*318 i_reg_in_data_n43
*319 i_reg_in_data_n42
*320 i_reg_in_data_n41
*321 i_reg_in_data_n40
*322 i_reg_in_data_n39
*323 i_reg_in_data_n38
*324 i_reg_in_data_n37
*325 i_reg_in_data_REGISTER_NBIT_OUT_Q_0_
*326 i_reg_in_data_REGISTER_NBIT_OUT_Q_1_
*327 i_reg_in_data_REGISTER_NBIT_OUT_Q_2_
*328 i_reg_in_data_REGISTER_NBIT_OUT_Q_3_
*329 i_delay_vin_n1
*330 i_delay_vin_n22
*331 i_delay_vin_n21
*332 i_delay_vin_n20
*333 i_delay_vin_n19
*334 i_delay_vin_n18
*335 i_delay_vin_n17
*336 i_delay_vin_n16
*337 i_delay_vin_n15
*338 i_delay_vin_n14
*339 i_delay_vin_n13
*340 i_delay_vin_n12
*341 i_delay_vin_n11
*342 i_delay_vin_n10
*343 i_delay_vin_n9
*344 i_delay_vin_n8
*345 i_delay_vin_n7
*346 i_delay_vin_n6
*347 i_delay_vin_n5
*348 i_delay_vin_n4
*349 i_delay_vin_n3
*350 i_delay_vin_n2
*351 i_pipe_R1_n15
*352 i_pipe_R1_n14
*353 i_pipe_R1_n13
*354 i_pipe_R1_n12
*355 i_pipe_R1_n11
*356 i_pipe_R1_n10
*357 i_pipe_R1_n9
*358 i_pipe_R1_n8
*359 i_pipe_R1_n7
*360 i_pipe_R1_n6
*361 i_pipe_R1_n5
*362 i_pipe_R1_n4
*363 i_pipe_R1_n3
*364 i_pipe_R1_n2
*365 i_pipe_R1_n1
*366 i_pipe_1_n31
*367 i_pipe_1_n30
*368 i_pipe_1_n29
*369 i_pipe_1_n28
*370 i_pipe_1_n27
*371 i_pipe_1_n26
*372 i_pipe_1_n25
*373 i_pipe_1_n24
*374 i_pipe_1_n23
*375 i_pipe_1_n22
*376 i_pipe_1_n21
*377 i_pipe_1_n20
*378 i_pipe_1_n19
*379 i_pipe_1_n18
*380 i_pipe_1_n17
*381 i_pipe_2_n31
*382 i_pipe_2_n30
*383 i_pipe_2_n29
*384 i_pipe_2_n28
*385 i_pipe_2_n27
*386 i_pipe_2_n26
*387 i_pipe_2_n25
*388 i_pipe_2_n24
*389 i_pipe_2_n23
*390 i_pipe_2_n22
*391 i_pipe_2_n21
*392 i_pipe_2_n20
*393 i_pipe_2_n19
*394 i_pipe_2_n18
*395 i_pipe_2_n17
*396 i_pipe_3_n31
*397 i_pipe_3_n30
*398 i_pipe_3_n29
*399 i_pipe_3_n28
*400 i_pipe_3_n27
*401 i_pipe_3_n26
*402 i_pipe_3_n25
*403 i_pipe_3_n24
*404 i_pipe_3_n23
*405 i_pipe_3_n22
*406 i_pipe_3_n21
*407 i_pipe_3_n20
*408 i_pipe_3_n19
*409 i_pipe_3_n18
*410 i_pipe_3_n17
*411 i_pipe_4_n31
*412 i_pipe_4_n30
*413 i_pipe_4_n29
*414 i_pipe_4_n28
*415 i_pipe_4_n27
*416 i_pipe_4_n26
*417 i_pipe_4_n25
*418 i_pipe_4_n24
*419 i_pipe_4_n23
*420 i_pipe_4_n22
*421 i_pipe_4_n21
*422 i_pipe_4_n20
*423 i_pipe_4_n19
*424 i_pipe_4_n18
*425 i_pipe_4_n17
*426 i_pipe_5_n31
*427 i_pipe_5_n30
*428 i_pipe_5_n29
*429 i_pipe_5_n28
*430 i_pipe_5_n27
*431 i_pipe_5_n26
*432 i_pipe_5_n25
*433 i_pipe_5_n24
*434 i_pipe_5_n23
*435 i_pipe_5_n22
*436 i_pipe_5_n21
*437 i_pipe_5_n20
*438 i_pipe_5_n19
*439 i_pipe_5_n18
*440 i_pipe_5_n17
*441 i_pipe_6_n31
*442 i_pipe_6_n30
*443 i_pipe_6_n29
*444 i_pipe_6_n28
*445 i_pipe_6_n27
*446 i_pipe_6_n26
*447 i_pipe_6_n25
*448 i_pipe_6_n24
*449 i_pipe_6_n23
*450 i_pipe_6_n22
*451 i_pipe_6_n21
*452 i_pipe_6_n20
*453 i_pipe_6_n19
*454 i_pipe_6_n18
*455 i_pipe_6_n17
*456 i_pipe_7_n31
*457 i_pipe_7_n30
*458 i_pipe_7_n29
*459 i_pipe_7_n28
*460 i_pipe_7_n27
*461 i_pipe_7_n26
*462 i_pipe_7_n25
*463 i_pipe_7_n24
*464 i_pipe_7_n23
*465 i_pipe_7_n22
*466 i_pipe_7_n21
*467 i_pipe_7_n20
*468 i_pipe_7_n19
*469 i_pipe_7_n18
*470 i_pipe_7_n17
*471 i_pipe_8_n31
*472 i_pipe_8_n30
*473 i_pipe_8_n29
*474 i_pipe_8_n28
*475 i_pipe_8_n27
*476 i_pipe_8_n26
*477 i_pipe_8_n25
*478 i_pipe_8_n24
*479 i_pipe_8_n23
*480 i_pipe_8_n22
*481 i_pipe_8_n21
*482 i_pipe_8_n20
*483 i_pipe_8_n19
*484 i_pipe_8_n18
*485 i_pipe_8_n17
*486 i_pipe_9_n31
*487 i_pipe_9_n30
*488 i_pipe_9_n29
*489 i_pipe_9_n28
*490 i_pipe_9_n27
*491 i_pipe_9_n26
*492 i_pipe_9_n25
*493 i_pipe_9_n24
*494 i_pipe_9_n23
*495 i_pipe_9_n22
*496 i_pipe_9_n21
*497 i_pipe_9_n20
*498 i_pipe_9_n19
*499 i_pipe_9_n18
*500 i_pipe_9_n17
*501 i_mult_0_MULTIPLIER_OUT_PRODUCT_0_
*502 i_mult_0_mult_30_n176
*503 i_mult_0_mult_30_n175
*504 i_mult_0_mult_30_n174
*505 i_mult_0_mult_30_n173
*506 i_mult_0_mult_30_n172
*507 i_mult_0_mult_30_n171
*508 i_mult_0_mult_30_n170
*509 i_mult_0_mult_30_n169
*510 i_mult_0_mult_30_n168
*511 i_mult_0_mult_30_n167
*512 i_mult_0_mult_30_n166
*513 i_mult_0_mult_30_n165
*514 i_mult_0_mult_30_n164
*515 i_mult_0_mult_30_n163
*516 i_mult_0_mult_30_n162
*517 i_mult_0_mult_30_n161
*518 i_mult_0_mult_30_n160
*519 i_mult_0_mult_30_n159
*520 i_mult_0_mult_30_n158
*521 i_mult_0_mult_30_n157
*522 i_mult_0_mult_30_n156
*523 i_mult_0_mult_30_n155
*524 i_mult_0_mult_30_n154
*525 i_mult_0_mult_30_n153
*526 i_mult_0_mult_30_n152
*527 i_mult_0_mult_30_n151
*528 i_mult_0_mult_30_n104
*529 i_mult_0_mult_30_n103
*530 i_mult_0_mult_30_n101
*531 i_mult_0_mult_30_n100
*532 i_mult_0_mult_30_n99
*533 i_mult_0_mult_30_n98
*534 i_mult_0_mult_30_n96
*535 i_mult_0_mult_30_n95
*536 i_mult_0_mult_30_n94
*537 i_mult_0_mult_30_n93
*538 i_mult_0_mult_30_n92
*539 i_mult_0_mult_30_n91
*540 i_mult_0_mult_30_n90
*541 i_mult_0_mult_30_n89
*542 i_mult_0_mult_30_n87
*543 i_mult_0_mult_30_n85
*544 i_mult_0_mult_30_n84
*545 i_mult_0_mult_30_n83
*546 i_mult_0_mult_30_n82
*547 i_mult_0_mult_30_n81
*548 i_mult_0_mult_30_n80
*549 i_mult_0_mult_30_n79
*550 i_mult_0_mult_30_n78
*551 i_mult_0_mult_30_n77
*552 i_mult_0_mult_30_n76
*553 i_mult_0_mult_30_n75
*554 i_mult_0_mult_30_n74
*555 i_mult_0_mult_30_n73
*556 i_mult_0_mult_30_n72
*557 i_mult_0_mult_30_n71
*558 i_mult_0_mult_30_n70
*559 i_mult_0_mult_30_n69
*560 i_mult_0_mult_30_n68
*561 i_mult_0_mult_30_n67
*562 i_mult_0_mult_30_n66
*563 i_mult_0_mult_30_n65
*564 i_mult_0_mult_30_n64
*565 i_mult_0_mult_30_n62
*566 i_mult_0_mult_30_n61
*567 i_mult_0_mult_30_n60
*568 i_mult_0_mult_30_n59
*569 i_mult_0_mult_30_n58
*570 i_mult_0_mult_30_n57
*571 i_mult_0_mult_30_n56
*572 i_mult_0_mult_30_n55
*573 i_mult_0_mult_30_n54
*574 i_mult_0_mult_30_n53
*575 i_mult_0_mult_30_n52
*576 i_mult_0_mult_30_n51
*577 i_mult_0_mult_30_n50
*578 i_mult_0_mult_30_n49
*579 i_mult_0_mult_30_n48
*580 i_mult_0_mult_30_n47
*581 i_mult_0_mult_30_n46
*582 i_mult_0_mult_30_n45
*583 i_mult_0_mult_30_n44
*584 i_mult_0_mult_30_n43
*585 i_mult_0_mult_30_n42
*586 i_mult_0_mult_30_n41
*587 i_mult_0_mult_30_n40
*588 i_mult_0_mult_30_n39
*589 i_mult_0_mult_30_n38
*590 i_mult_0_mult_30_n37
*591 i_mult_0_mult_30_n36
*592 i_mult_0_mult_30_n35
*593 i_mult_0_mult_30_n34
*594 i_mult_0_mult_30_n33
*595 i_mult_0_mult_30_n32
*596 i_mult_0_mult_30_n30
*597 i_mult_0_mult_30_n29
*598 i_mult_0_mult_30_n28
*599 i_mult_0_mult_30_n27
*600 i_mult_0_mult_30_n26
*601 i_mult_0_mult_30_n25
*602 i_mult_0_mult_30_n24
*603 i_mult_0_mult_30_n23
*604 i_mult_0_mult_30_n22
*605 i_mult_0_mult_30_n21
*606 i_mult_0_mult_30_n20
*607 i_mult_0_mult_30_n19
*608 i_mult_0_mult_30_n18
*609 i_mult_0_mult_30_n17
*610 i_mult_0_mult_30_n16
*611 i_mult_0_mult_30_n15
*612 i_mult_0_mult_30_n14
*613 i_mult_0_mult_30_n13
*614 i_mult_0_mult_30_n8
*615 i_mult_0_mult_30_n7
*616 i_mult_0_mult_30_n6
*617 i_mult_0_mult_30_n5
*618 i_mult_0_mult_30_n4
*619 i_mult_0_mult_30_n3
*620 i_mult_0_mult_30_n2
*621 i_multiplier_1_MULTIPLIER_OUT_PRODUCT_0_
*622 i_multiplier_1_mult_30_n176
*623 i_multiplier_1_mult_30_n175
*624 i_multiplier_1_mult_30_n174
*625 i_multiplier_1_mult_30_n173
*626 i_multiplier_1_mult_30_n172
*627 i_multiplier_1_mult_30_n171
*628 i_multiplier_1_mult_30_n170
*629 i_multiplier_1_mult_30_n169
*630 i_multiplier_1_mult_30_n168
*631 i_multiplier_1_mult_30_n167
*632 i_multiplier_1_mult_30_n166
*633 i_multiplier_1_mult_30_n165
*634 i_multiplier_1_mult_30_n164
*635 i_multiplier_1_mult_30_n163
*636 i_multiplier_1_mult_30_n162
*637 i_multiplier_1_mult_30_n161
*638 i_multiplier_1_mult_30_n160
*639 i_multiplier_1_mult_30_n159
*640 i_multiplier_1_mult_30_n158
*641 i_multiplier_1_mult_30_n157
*642 i_multiplier_1_mult_30_n156
*643 i_multiplier_1_mult_30_n155
*644 i_multiplier_1_mult_30_n154
*645 i_multiplier_1_mult_30_n153
*646 i_multiplier_1_mult_30_n152
*647 i_multiplier_1_mult_30_n151
*648 i_multiplier_1_mult_30_n104
*649 i_multiplier_1_mult_30_n103
*650 i_multiplier_1_mult_30_n101
*651 i_multiplier_1_mult_30_n100
*652 i_multiplier_1_mult_30_n99
*653 i_multiplier_1_mult_30_n98
*654 i_multiplier_1_mult_30_n96
*655 i_multiplier_1_mult_30_n95
*656 i_multiplier_1_mult_30_n94
*657 i_multiplier_1_mult_30_n93
*658 i_multiplier_1_mult_30_n92
*659 i_multiplier_1_mult_30_n91
*660 i_multiplier_1_mult_30_n90
*661 i_multiplier_1_mult_30_n89
*662 i_multiplier_1_mult_30_n87
*663 i_multiplier_1_mult_30_n85
*664 i_multiplier_1_mult_30_n84
*665 i_multiplier_1_mult_30_n83
*666 i_multiplier_1_mult_30_n82
*667 i_multiplier_1_mult_30_n81
*668 i_multiplier_1_mult_30_n80
*669 i_multiplier_1_mult_30_n79
*670 i_multiplier_1_mult_30_n78
*671 i_multiplier_1_mult_30_n77
*672 i_multiplier_1_mult_30_n76
*673 i_multiplier_1_mult_30_n75
*674 i_multiplier_1_mult_30_n74
*675 i_multiplier_1_mult_30_n73
*676 i_multiplier_1_mult_30_n72
*677 i_multiplier_1_mult_30_n71
*678 i_multiplier_1_mult_30_n70
*679 i_multiplier_1_mult_30_n69
*680 i_multiplier_1_mult_30_n68
*681 i_multiplier_1_mult_30_n67
*682 i_multiplier_1_mult_30_n66
*683 i_multiplier_1_mult_30_n65
*684 i_multiplier_1_mult_30_n64
*685 i_multiplier_1_mult_30_n62
*686 i_multiplier_1_mult_30_n61
*687 i_multiplier_1_mult_30_n60
*688 i_multiplier_1_mult_30_n59
*689 i_multiplier_1_mult_30_n58
*690 i_multiplier_1_mult_30_n57
*691 i_multiplier_1_mult_30_n56
*692 i_multiplier_1_mult_30_n55
*693 i_multiplier_1_mult_30_n54
*694 i_multiplier_1_mult_30_n53
*695 i_multiplier_1_mult_30_n52
*696 i_multiplier_1_mult_30_n51
*697 i_multiplier_1_mult_30_n50
*698 i_multiplier_1_mult_30_n49
*699 i_multiplier_1_mult_30_n48
*700 i_multiplier_1_mult_30_n47
*701 i_multiplier_1_mult_30_n46
*702 i_multiplier_1_mult_30_n45
*703 i_multiplier_1_mult_30_n44
*704 i_multiplier_1_mult_30_n43
*705 i_multiplier_1_mult_30_n42
*706 i_multiplier_1_mult_30_n41
*707 i_multiplier_1_mult_30_n40
*708 i_multiplier_1_mult_30_n39
*709 i_multiplier_1_mult_30_n38
*710 i_multiplier_1_mult_30_n37
*711 i_multiplier_1_mult_30_n36
*712 i_multiplier_1_mult_30_n35
*713 i_multiplier_1_mult_30_n34
*714 i_multiplier_1_mult_30_n33
*715 i_multiplier_1_mult_30_n32
*716 i_multiplier_1_mult_30_n30
*717 i_multiplier_1_mult_30_n29
*718 i_multiplier_1_mult_30_n28
*719 i_multiplier_1_mult_30_n27
*720 i_multiplier_1_mult_30_n26
*721 i_multiplier_1_mult_30_n25
*722 i_multiplier_1_mult_30_n24
*723 i_multiplier_1_mult_30_n23
*724 i_multiplier_1_mult_30_n22
*725 i_multiplier_1_mult_30_n21
*726 i_multiplier_1_mult_30_n20
*727 i_multiplier_1_mult_30_n19
*728 i_multiplier_1_mult_30_n18
*729 i_multiplier_1_mult_30_n17
*730 i_multiplier_1_mult_30_n16
*731 i_multiplier_1_mult_30_n15
*732 i_multiplier_1_mult_30_n14
*733 i_multiplier_1_mult_30_n13
*734 i_multiplier_1_mult_30_n8
*735 i_multiplier_1_mult_30_n7
*736 i_multiplier_1_mult_30_n6
*737 i_multiplier_1_mult_30_n5
*738 i_multiplier_1_mult_30_n4
*739 i_multiplier_1_mult_30_n3
*740 i_multiplier_1_mult_30_n2
*741 i_multiplier_2_MULTIPLIER_OUT_PRODUCT_0_
*742 i_multiplier_2_mult_30_n176
*743 i_multiplier_2_mult_30_n175
*744 i_multiplier_2_mult_30_n174
*745 i_multiplier_2_mult_30_n173
*746 i_multiplier_2_mult_30_n172
*747 i_multiplier_2_mult_30_n171
*748 i_multiplier_2_mult_30_n170
*749 i_multiplier_2_mult_30_n169
*750 i_multiplier_2_mult_30_n168
*751 i_multiplier_2_mult_30_n167
*752 i_multiplier_2_mult_30_n166
*753 i_multiplier_2_mult_30_n165
*754 i_multiplier_2_mult_30_n164
*755 i_multiplier_2_mult_30_n163
*756 i_multiplier_2_mult_30_n162
*757 i_multiplier_2_mult_30_n161
*758 i_multiplier_2_mult_30_n160
*759 i_multiplier_2_mult_30_n159
*760 i_multiplier_2_mult_30_n158
*761 i_multiplier_2_mult_30_n157
*762 i_multiplier_2_mult_30_n156
*763 i_multiplier_2_mult_30_n155
*764 i_multiplier_2_mult_30_n154
*765 i_multiplier_2_mult_30_n153
*766 i_multiplier_2_mult_30_n152
*767 i_multiplier_2_mult_30_n151
*768 i_multiplier_2_mult_30_n104
*769 i_multiplier_2_mult_30_n103
*770 i_multiplier_2_mult_30_n101
*771 i_multiplier_2_mult_30_n100
*772 i_multiplier_2_mult_30_n99
*773 i_multiplier_2_mult_30_n98
*774 i_multiplier_2_mult_30_n96
*775 i_multiplier_2_mult_30_n95
*776 i_multiplier_2_mult_30_n94
*777 i_multiplier_2_mult_30_n93
*778 i_multiplier_2_mult_30_n92
*779 i_multiplier_2_mult_30_n91
*780 i_multiplier_2_mult_30_n90
*781 i_multiplier_2_mult_30_n89
*782 i_multiplier_2_mult_30_n87
*783 i_multiplier_2_mult_30_n85
*784 i_multiplier_2_mult_30_n84
*785 i_multiplier_2_mult_30_n83
*786 i_multiplier_2_mult_30_n82
*787 i_multiplier_2_mult_30_n81
*788 i_multiplier_2_mult_30_n80
*789 i_multiplier_2_mult_30_n79
*790 i_multiplier_2_mult_30_n78
*791 i_multiplier_2_mult_30_n77
*792 i_multiplier_2_mult_30_n76
*793 i_multiplier_2_mult_30_n75
*794 i_multiplier_2_mult_30_n74
*795 i_multiplier_2_mult_30_n73
*796 i_multiplier_2_mult_30_n72
*797 i_multiplier_2_mult_30_n71
*798 i_multiplier_2_mult_30_n70
*799 i_multiplier_2_mult_30_n69
*800 i_multiplier_2_mult_30_n68
*801 i_multiplier_2_mult_30_n67
*802 i_multiplier_2_mult_30_n66
*803 i_multiplier_2_mult_30_n65
*804 i_multiplier_2_mult_30_n64
*805 i_multiplier_2_mult_30_n62
*806 i_multiplier_2_mult_30_n61
*807 i_multiplier_2_mult_30_n60
*808 i_multiplier_2_mult_30_n59
*809 i_multiplier_2_mult_30_n58
*810 i_multiplier_2_mult_30_n57
*811 i_multiplier_2_mult_30_n56
*812 i_multiplier_2_mult_30_n55
*813 i_multiplier_2_mult_30_n54
*814 i_multiplier_2_mult_30_n53
*815 i_multiplier_2_mult_30_n52
*816 i_multiplier_2_mult_30_n51
*817 i_multiplier_2_mult_30_n50
*818 i_multiplier_2_mult_30_n49
*819 i_multiplier_2_mult_30_n48
*820 i_multiplier_2_mult_30_n47
*821 i_multiplier_2_mult_30_n46
*822 i_multiplier_2_mult_30_n45
*823 i_multiplier_2_mult_30_n44
*824 i_multiplier_2_mult_30_n43
*825 i_multiplier_2_mult_30_n42
*826 i_multiplier_2_mult_30_n41
*827 i_multiplier_2_mult_30_n40
*828 i_multiplier_2_mult_30_n39
*829 i_multiplier_2_mult_30_n38
*830 i_multiplier_2_mult_30_n37
*831 i_multiplier_2_mult_30_n36
*832 i_multiplier_2_mult_30_n35
*833 i_multiplier_2_mult_30_n34
*834 i_multiplier_2_mult_30_n33
*835 i_multiplier_2_mult_30_n32
*836 i_multiplier_2_mult_30_n30
*837 i_multiplier_2_mult_30_n29
*838 i_multiplier_2_mult_30_n28
*839 i_multiplier_2_mult_30_n27
*840 i_multiplier_2_mult_30_n26
*841 i_multiplier_2_mult_30_n25
*842 i_multiplier_2_mult_30_n24
*843 i_multiplier_2_mult_30_n23
*844 i_multiplier_2_mult_30_n22
*845 i_multiplier_2_mult_30_n21
*846 i_multiplier_2_mult_30_n20
*847 i_multiplier_2_mult_30_n19
*848 i_multiplier_2_mult_30_n18
*849 i_multiplier_2_mult_30_n17
*850 i_multiplier_2_mult_30_n16
*851 i_multiplier_2_mult_30_n15
*852 i_multiplier_2_mult_30_n14
*853 i_multiplier_2_mult_30_n13
*854 i_multiplier_2_mult_30_n8
*855 i_multiplier_2_mult_30_n7
*856 i_multiplier_2_mult_30_n6
*857 i_multiplier_2_mult_30_n5
*858 i_multiplier_2_mult_30_n4
*859 i_multiplier_2_mult_30_n3
*860 i_multiplier_2_mult_30_n2
*861 i_multiplier_3_MULTIPLIER_OUT_PRODUCT_0_
*862 i_multiplier_3_mult_30_n176
*863 i_multiplier_3_mult_30_n175
*864 i_multiplier_3_mult_30_n174
*865 i_multiplier_3_mult_30_n173
*866 i_multiplier_3_mult_30_n172
*867 i_multiplier_3_mult_30_n171
*868 i_multiplier_3_mult_30_n170
*869 i_multiplier_3_mult_30_n169
*870 i_multiplier_3_mult_30_n168
*871 i_multiplier_3_mult_30_n167
*872 i_multiplier_3_mult_30_n166
*873 i_multiplier_3_mult_30_n165
*874 i_multiplier_3_mult_30_n164
*875 i_multiplier_3_mult_30_n163
*876 i_multiplier_3_mult_30_n162
*877 i_multiplier_3_mult_30_n161
*878 i_multiplier_3_mult_30_n160
*879 i_multiplier_3_mult_30_n159
*880 i_multiplier_3_mult_30_n158
*881 i_multiplier_3_mult_30_n157
*882 i_multiplier_3_mult_30_n156
*883 i_multiplier_3_mult_30_n155
*884 i_multiplier_3_mult_30_n154
*885 i_multiplier_3_mult_30_n153
*886 i_multiplier_3_mult_30_n152
*887 i_multiplier_3_mult_30_n151
*888 i_multiplier_3_mult_30_n104
*889 i_multiplier_3_mult_30_n103
*890 i_multiplier_3_mult_30_n101
*891 i_multiplier_3_mult_30_n100
*892 i_multiplier_3_mult_30_n99
*893 i_multiplier_3_mult_30_n98
*894 i_multiplier_3_mult_30_n96
*895 i_multiplier_3_mult_30_n95
*896 i_multiplier_3_mult_30_n94
*897 i_multiplier_3_mult_30_n93
*898 i_multiplier_3_mult_30_n92
*899 i_multiplier_3_mult_30_n91
*900 i_multiplier_3_mult_30_n90
*901 i_multiplier_3_mult_30_n89
*902 i_multiplier_3_mult_30_n87
*903 i_multiplier_3_mult_30_n85
*904 i_multiplier_3_mult_30_n84
*905 i_multiplier_3_mult_30_n83
*906 i_multiplier_3_mult_30_n82
*907 i_multiplier_3_mult_30_n81
*908 i_multiplier_3_mult_30_n80
*909 i_multiplier_3_mult_30_n79
*910 i_multiplier_3_mult_30_n78
*911 i_multiplier_3_mult_30_n77
*912 i_multiplier_3_mult_30_n76
*913 i_multiplier_3_mult_30_n75
*914 i_multiplier_3_mult_30_n74
*915 i_multiplier_3_mult_30_n73
*916 i_multiplier_3_mult_30_n72
*917 i_multiplier_3_mult_30_n71
*918 i_multiplier_3_mult_30_n70
*919 i_multiplier_3_mult_30_n69
*920 i_multiplier_3_mult_30_n68
*921 i_multiplier_3_mult_30_n67
*922 i_multiplier_3_mult_30_n66
*923 i_multiplier_3_mult_30_n65
*924 i_multiplier_3_mult_30_n64
*925 i_multiplier_3_mult_30_n62
*926 i_multiplier_3_mult_30_n61
*927 i_multiplier_3_mult_30_n60
*928 i_multiplier_3_mult_30_n59
*929 i_multiplier_3_mult_30_n58
*930 i_multiplier_3_mult_30_n57
*931 i_multiplier_3_mult_30_n56
*932 i_multiplier_3_mult_30_n55
*933 i_multiplier_3_mult_30_n54
*934 i_multiplier_3_mult_30_n53
*935 i_multiplier_3_mult_30_n52
*936 i_multiplier_3_mult_30_n51
*937 i_multiplier_3_mult_30_n50
*938 i_multiplier_3_mult_30_n49
*939 i_multiplier_3_mult_30_n48
*940 i_multiplier_3_mult_30_n47
*941 i_multiplier_3_mult_30_n46
*942 i_multiplier_3_mult_30_n45
*943 i_multiplier_3_mult_30_n44
*944 i_multiplier_3_mult_30_n43
*945 i_multiplier_3_mult_30_n42
*946 i_multiplier_3_mult_30_n41
*947 i_multiplier_3_mult_30_n40
*948 i_multiplier_3_mult_30_n39
*949 i_multiplier_3_mult_30_n38
*950 i_multiplier_3_mult_30_n37
*951 i_multiplier_3_mult_30_n36
*952 i_multiplier_3_mult_30_n35
*953 i_multiplier_3_mult_30_n34
*954 i_multiplier_3_mult_30_n33
*955 i_multiplier_3_mult_30_n32
*956 i_multiplier_3_mult_30_n30
*957 i_multiplier_3_mult_30_n29
*958 i_multiplier_3_mult_30_n28
*959 i_multiplier_3_mult_30_n27
*960 i_multiplier_3_mult_30_n26
*961 i_multiplier_3_mult_30_n25
*962 i_multiplier_3_mult_30_n24
*963 i_multiplier_3_mult_30_n23
*964 i_multiplier_3_mult_30_n22
*965 i_multiplier_3_mult_30_n21
*966 i_multiplier_3_mult_30_n20
*967 i_multiplier_3_mult_30_n19
*968 i_multiplier_3_mult_30_n18
*969 i_multiplier_3_mult_30_n17
*970 i_multiplier_3_mult_30_n16
*971 i_multiplier_3_mult_30_n15
*972 i_multiplier_3_mult_30_n14
*973 i_multiplier_3_mult_30_n13
*974 i_multiplier_3_mult_30_n8
*975 i_multiplier_3_mult_30_n7
*976 i_multiplier_3_mult_30_n6
*977 i_multiplier_3_mult_30_n5
*978 i_multiplier_3_mult_30_n4
*979 i_multiplier_3_mult_30_n3
*980 i_multiplier_3_mult_30_n2
*981 i_multiplier_4_MULTIPLIER_OUT_PRODUCT_0_
*982 i_multiplier_4_mult_30_n176
*983 i_multiplier_4_mult_30_n175
*984 i_multiplier_4_mult_30_n174
*985 i_multiplier_4_mult_30_n173
*986 i_multiplier_4_mult_30_n172
*987 i_multiplier_4_mult_30_n171
*988 i_multiplier_4_mult_30_n170
*989 i_multiplier_4_mult_30_n169
*990 i_multiplier_4_mult_30_n168
*991 i_multiplier_4_mult_30_n167
*992 i_multiplier_4_mult_30_n166
*993 i_multiplier_4_mult_30_n165
*994 i_multiplier_4_mult_30_n164
*995 i_multiplier_4_mult_30_n163
*996 i_multiplier_4_mult_30_n162
*997 i_multiplier_4_mult_30_n161
*998 i_multiplier_4_mult_30_n160
*999 i_multiplier_4_mult_30_n159
*1000 i_multiplier_4_mult_30_n158
*1001 i_multiplier_4_mult_30_n157
*1002 i_multiplier_4_mult_30_n156
*1003 i_multiplier_4_mult_30_n155
*1004 i_multiplier_4_mult_30_n154
*1005 i_multiplier_4_mult_30_n153
*1006 i_multiplier_4_mult_30_n152
*1007 i_multiplier_4_mult_30_n151
*1008 i_multiplier_4_mult_30_n104
*1009 i_multiplier_4_mult_30_n103
*1010 i_multiplier_4_mult_30_n101
*1011 i_multiplier_4_mult_30_n100
*1012 i_multiplier_4_mult_30_n99
*1013 i_multiplier_4_mult_30_n98
*1014 i_multiplier_4_mult_30_n96
*1015 i_multiplier_4_mult_30_n95
*1016 i_multiplier_4_mult_30_n94
*1017 i_multiplier_4_mult_30_n93
*1018 i_multiplier_4_mult_30_n92
*1019 i_multiplier_4_mult_30_n91
*1020 i_multiplier_4_mult_30_n90
*1021 i_multiplier_4_mult_30_n89
*1022 i_multiplier_4_mult_30_n87
*1023 i_multiplier_4_mult_30_n85
*1024 i_multiplier_4_mult_30_n84
*1025 i_multiplier_4_mult_30_n83
*1026 i_multiplier_4_mult_30_n82
*1027 i_multiplier_4_mult_30_n81
*1028 i_multiplier_4_mult_30_n80
*1029 i_multiplier_4_mult_30_n79
*1030 i_multiplier_4_mult_30_n78
*1031 i_multiplier_4_mult_30_n77
*1032 i_multiplier_4_mult_30_n76
*1033 i_multiplier_4_mult_30_n75
*1034 i_multiplier_4_mult_30_n74
*1035 i_multiplier_4_mult_30_n73
*1036 i_multiplier_4_mult_30_n72
*1037 i_multiplier_4_mult_30_n71
*1038 i_multiplier_4_mult_30_n70
*1039 i_multiplier_4_mult_30_n69
*1040 i_multiplier_4_mult_30_n68
*1041 i_multiplier_4_mult_30_n67
*1042 i_multiplier_4_mult_30_n66
*1043 i_multiplier_4_mult_30_n65
*1044 i_multiplier_4_mult_30_n64
*1045 i_multiplier_4_mult_30_n62
*1046 i_multiplier_4_mult_30_n61
*1047 i_multiplier_4_mult_30_n60
*1048 i_multiplier_4_mult_30_n59
*1049 i_multiplier_4_mult_30_n58
*1050 i_multiplier_4_mult_30_n57
*1051 i_multiplier_4_mult_30_n56
*1052 i_multiplier_4_mult_30_n55
*1053 i_multiplier_4_mult_30_n54
*1054 i_multiplier_4_mult_30_n53
*1055 i_multiplier_4_mult_30_n52
*1056 i_multiplier_4_mult_30_n51
*1057 i_multiplier_4_mult_30_n50
*1058 i_multiplier_4_mult_30_n49
*1059 i_multiplier_4_mult_30_n48
*1060 i_multiplier_4_mult_30_n47
*1061 i_multiplier_4_mult_30_n46
*1062 i_multiplier_4_mult_30_n45
*1063 i_multiplier_4_mult_30_n44
*1064 i_multiplier_4_mult_30_n43
*1065 i_multiplier_4_mult_30_n42
*1066 i_multiplier_4_mult_30_n41
*1067 i_multiplier_4_mult_30_n40
*1068 i_multiplier_4_mult_30_n39
*1069 i_multiplier_4_mult_30_n38
*1070 i_multiplier_4_mult_30_n37
*1071 i_multiplier_4_mult_30_n36
*1072 i_multiplier_4_mult_30_n35
*1073 i_multiplier_4_mult_30_n34
*1074 i_multiplier_4_mult_30_n33
*1075 i_multiplier_4_mult_30_n32
*1076 i_multiplier_4_mult_30_n30
*1077 i_multiplier_4_mult_30_n29
*1078 i_multiplier_4_mult_30_n28
*1079 i_multiplier_4_mult_30_n27
*1080 i_multiplier_4_mult_30_n26
*1081 i_multiplier_4_mult_30_n25
*1082 i_multiplier_4_mult_30_n24
*1083 i_multiplier_4_mult_30_n23
*1084 i_multiplier_4_mult_30_n22
*1085 i_multiplier_4_mult_30_n21
*1086 i_multiplier_4_mult_30_n20
*1087 i_multiplier_4_mult_30_n19
*1088 i_multiplier_4_mult_30_n18
*1089 i_multiplier_4_mult_30_n17
*1090 i_multiplier_4_mult_30_n16
*1091 i_multiplier_4_mult_30_n15
*1092 i_multiplier_4_mult_30_n14
*1093 i_multiplier_4_mult_30_n13
*1094 i_multiplier_4_mult_30_n8
*1095 i_multiplier_4_mult_30_n7
*1096 i_multiplier_4_mult_30_n6
*1097 i_multiplier_4_mult_30_n5
*1098 i_multiplier_4_mult_30_n4
*1099 i_multiplier_4_mult_30_n3
*1100 i_multiplier_4_mult_30_n2
*1101 i_multiplier_5_MULTIPLIER_OUT_PRODUCT_0_
*1102 i_multiplier_5_mult_30_n176
*1103 i_multiplier_5_mult_30_n175
*1104 i_multiplier_5_mult_30_n174
*1105 i_multiplier_5_mult_30_n173
*1106 i_multiplier_5_mult_30_n172
*1107 i_multiplier_5_mult_30_n171
*1108 i_multiplier_5_mult_30_n170
*1109 i_multiplier_5_mult_30_n169
*1110 i_multiplier_5_mult_30_n168
*1111 i_multiplier_5_mult_30_n167
*1112 i_multiplier_5_mult_30_n166
*1113 i_multiplier_5_mult_30_n165
*1114 i_multiplier_5_mult_30_n164
*1115 i_multiplier_5_mult_30_n163
*1116 i_multiplier_5_mult_30_n162
*1117 i_multiplier_5_mult_30_n161
*1118 i_multiplier_5_mult_30_n160
*1119 i_multiplier_5_mult_30_n159
*1120 i_multiplier_5_mult_30_n158
*1121 i_multiplier_5_mult_30_n157
*1122 i_multiplier_5_mult_30_n156
*1123 i_multiplier_5_mult_30_n155
*1124 i_multiplier_5_mult_30_n154
*1125 i_multiplier_5_mult_30_n153
*1126 i_multiplier_5_mult_30_n152
*1127 i_multiplier_5_mult_30_n151
*1128 i_multiplier_5_mult_30_n104
*1129 i_multiplier_5_mult_30_n103
*1130 i_multiplier_5_mult_30_n101
*1131 i_multiplier_5_mult_30_n100
*1132 i_multiplier_5_mult_30_n99
*1133 i_multiplier_5_mult_30_n98
*1134 i_multiplier_5_mult_30_n96
*1135 i_multiplier_5_mult_30_n95
*1136 i_multiplier_5_mult_30_n94
*1137 i_multiplier_5_mult_30_n93
*1138 i_multiplier_5_mult_30_n92
*1139 i_multiplier_5_mult_30_n91